id	sid	tid	token	lemma	pos
homer-odyssey-850_02	1	1	ASSEMBLY	assembly	NN
homer-odyssey-850_02	1	2	OF	of	IN
homer-odyssey-850_02	1	3	THE	the	DT
homer-odyssey-850_02	1	4	PEOPLE	people	NNS
homer-odyssey-850_02	1	5	OF	of	IN
homer-odyssey-850_02	1	6	ITHACA	ithaca	NNP
homer-odyssey-850_02	1	7	--	--	:
homer-odyssey-850_02	1	8	SPEECHES	speeches	NN
homer-odyssey-850_02	1	9	OF	of	IN
homer-odyssey-850_02	1	10	TELEMACHUS	telemachus	NNP
homer-odyssey-850_02	1	11	AND	and	CC
homer-odyssey-850_02	1	12	OF	of	IN
homer-odyssey-850_02	1	13	THE	the	DT
homer-odyssey-850_02	1	14	SUITORS	suitors	NNP
homer-odyssey-850_02	1	15	--	--	:
homer-odyssey-850_02	1	16	TELEMACHUS	telemachus	NNP
homer-odyssey-850_02	1	17	MAKES	make	VBZ
homer-odyssey-850_02	1	18	HIS	his	PRP$
homer-odyssey-850_02	1	19	PREPARATIONS	preparation	NNS
homer-odyssey-850_02	1	20	AND	and	CC
homer-odyssey-850_02	1	21	STARTS	starts	NNP
homer-odyssey-850_02	1	22	FOR	for	IN
homer-odyssey-850_02	1	23	PYLOS	pylos	NNP
homer-odyssey-850_02	1	24	WITH	with	IN
homer-odyssey-850_02	1	25	MINERVA	minerva	NNP
homer-odyssey-850_02	1	26	DISGUISED	disguised	NN
homer-odyssey-850_02	1	27	AS	as	IN
homer-odyssey-850_02	1	28	MENTOR	mentor	NNP
homer-odyssey-850_02	1	29	.	.	.
homer-odyssey-850_02	2	1	Now	now	RB
homer-odyssey-850_02	2	2	when	when	WRB
homer-odyssey-850_02	2	3	the	the	DT
homer-odyssey-850_02	2	4	child	child	NN
homer-odyssey-850_02	2	5	of	of	IN
homer-odyssey-850_02	2	6	morning	morning	NN
homer-odyssey-850_02	2	7	,	,	,
homer-odyssey-850_02	2	8	rosy-	rosy-	VBZ
homer-odyssey-850_02	2	9	fingered	finger	VBN
homer-odyssey-850_02	2	10	Dawn	dawn	NNP
homer-odyssey-850_02	2	11	,	,	,
homer-odyssey-850_02	2	12	appeared	appear	VBD
homer-odyssey-850_02	2	13	Telemachus	telemachus	NNP
homer-odyssey-850_02	2	14	rose	rise	VBD
homer-odyssey-850_02	2	15	and	and	CC
homer-odyssey-850_02	2	16	dressed	dress	VBD
homer-odyssey-850_02	2	17	himself	-PRON-	PRP
homer-odyssey-850_02	2	18	.	.	.
homer-odyssey-850_02	3	1	He	-PRON-	PRP
homer-odyssey-850_02	3	2	bound	bind	VBD
homer-odyssey-850_02	3	3	his	-PRON-	PRP$
homer-odyssey-850_02	3	4	sandals	sandal	NNS
homer-odyssey-850_02	3	5	on	on	RP
homer-odyssey-850_02	3	6	to	to	IN
homer-odyssey-850_02	3	7	his	-PRON-	PRP$
homer-odyssey-850_02	3	8	comely	comely	JJ
homer-odyssey-850_02	3	9	feet	foot	NNS
homer-odyssey-850_02	3	10	,	,	,
homer-odyssey-850_02	3	11	girded	gird	VBD
homer-odyssey-850_02	3	12	his	-PRON-	PRP$
homer-odyssey-850_02	3	13	sword	sword	NN
homer-odyssey-850_02	3	14	about	about	IN
homer-odyssey-850_02	3	15	his	-PRON-	PRP$
homer-odyssey-850_02	3	16	shoulder	shoulder	NN
homer-odyssey-850_02	3	17	,	,	,
homer-odyssey-850_02	3	18	and	and	CC
homer-odyssey-850_02	3	19	left	leave	VBD
homer-odyssey-850_02	3	20	his	-PRON-	PRP$
homer-odyssey-850_02	3	21	room	room	NN
homer-odyssey-850_02	3	22	looking	look	VBG
homer-odyssey-850_02	3	23	like	like	IN
homer-odyssey-850_02	3	24	an	an	DT
homer-odyssey-850_02	3	25	immortal	immortal	JJ
homer-odyssey-850_02	3	26	god	god	NN
homer-odyssey-850_02	3	27	.	.	.
homer-odyssey-850_02	4	1	He	-PRON-	PRP
homer-odyssey-850_02	4	2	at	at	IN
homer-odyssey-850_02	4	3	once	once	RB
homer-odyssey-850_02	4	4	sent	send	VBD
homer-odyssey-850_02	4	5	the	the	DT
homer-odyssey-850_02	4	6	criers	crier	NNS
homer-odyssey-850_02	4	7	round	round	RB
homer-odyssey-850_02	4	8	to	to	TO
homer-odyssey-850_02	4	9	call	call	VB
homer-odyssey-850_02	4	10	the	the	DT
homer-odyssey-850_02	4	11	people	people	NNS
homer-odyssey-850_02	4	12	in	in	IN
homer-odyssey-850_02	4	13	assembly	assembly	NN
homer-odyssey-850_02	4	14	,	,	,
homer-odyssey-850_02	4	15	so	so	CC
homer-odyssey-850_02	4	16	they	-PRON-	PRP
homer-odyssey-850_02	4	17	called	call	VBD
homer-odyssey-850_02	4	18	them	-PRON-	PRP
homer-odyssey-850_02	4	19	and	and	CC
homer-odyssey-850_02	4	20	the	the	DT
homer-odyssey-850_02	4	21	people	people	NNS
homer-odyssey-850_02	4	22	gathered	gather	VBD
homer-odyssey-850_02	4	23	thereon	thereon	NN
homer-odyssey-850_02	4	24	;	;	:
homer-odyssey-850_02	4	25	then	then	RB
homer-odyssey-850_02	4	26	,	,	,
homer-odyssey-850_02	4	27	when	when	WRB
homer-odyssey-850_02	4	28	they	-PRON-	PRP
homer-odyssey-850_02	4	29	were	be	VBD
homer-odyssey-850_02	4	30	got	get	VBN
homer-odyssey-850_02	4	31	together	together	RB
homer-odyssey-850_02	4	32	,	,	,
homer-odyssey-850_02	4	33	he	-PRON-	PRP
homer-odyssey-850_02	4	34	went	go	VBD
homer-odyssey-850_02	4	35	to	to	IN
homer-odyssey-850_02	4	36	the	the	DT
homer-odyssey-850_02	4	37	place	place	NN
homer-odyssey-850_02	4	38	of	of	IN
homer-odyssey-850_02	4	39	assembly	assembly	NN
homer-odyssey-850_02	4	40	spear	spear	NN
homer-odyssey-850_02	4	41	in	in	IN
homer-odyssey-850_02	4	42	hand--	hand--	NN
homer-odyssey-850_02	4	43	not	not	RB
homer-odyssey-850_02	4	44	alone	alone	RB
homer-odyssey-850_02	4	45	,	,	,
homer-odyssey-850_02	4	46	for	for	IN
homer-odyssey-850_02	4	47	his	-PRON-	PRP$
homer-odyssey-850_02	4	48	two	two	CD
homer-odyssey-850_02	4	49	hounds	hound	NNS
homer-odyssey-850_02	4	50	went	go	VBD
homer-odyssey-850_02	4	51	with	with	IN
homer-odyssey-850_02	4	52	him	-PRON-	PRP
homer-odyssey-850_02	4	53	.	.	.
homer-odyssey-850_02	5	1	Minerva	minerva	NNP
homer-odyssey-850_02	5	2	endowed	endow	VBD
homer-odyssey-850_02	5	3	him	-PRON-	PRP
homer-odyssey-850_02	5	4	with	with	IN
homer-odyssey-850_02	5	5	a	a	DT
homer-odyssey-850_02	5	6	presence	presence	NN
homer-odyssey-850_02	5	7	of	of	IN
homer-odyssey-850_02	5	8	such	such	JJ
homer-odyssey-850_02	5	9	divine	divine	JJ
homer-odyssey-850_02	5	10	comeliness	comeliness	NN
homer-odyssey-850_02	5	11	that	that	IN
homer-odyssey-850_02	5	12	all	all	DT
homer-odyssey-850_02	5	13	marvelled	marvel	VBD
homer-odyssey-850_02	5	14	at	at	IN
homer-odyssey-850_02	5	15	him	-PRON-	PRP
homer-odyssey-850_02	5	16	as	as	IN
homer-odyssey-850_02	5	17	he	-PRON-	PRP
homer-odyssey-850_02	5	18	went	go	VBD
homer-odyssey-850_02	5	19	by	by	RB
homer-odyssey-850_02	5	20	,	,	,
homer-odyssey-850_02	5	21	and	and	CC
homer-odyssey-850_02	5	22	when	when	WRB
homer-odyssey-850_02	5	23	he	-PRON-	PRP
homer-odyssey-850_02	5	24	took	take	VBD
homer-odyssey-850_02	5	25	his	-PRON-	PRP$
homer-odyssey-850_02	5	26	place	place	NN
homer-odyssey-850_02	5	27	in	in	IN
homer-odyssey-850_02	5	28	his	-PRON-	PRP$
homer-odyssey-850_02	5	29	father	father	NN
homer-odyssey-850_02	5	30	's	's	POS
homer-odyssey-850_02	5	31	seat	seat	NN
homer-odyssey-850_02	5	32	even	even	RB
homer-odyssey-850_02	5	33	the	the	DT
homer-odyssey-850_02	5	34	oldest	old	JJS
homer-odyssey-850_02	5	35	councillors	councillor	NNS
homer-odyssey-850_02	5	36	made	make	VBD
homer-odyssey-850_02	5	37	way	way	NN
homer-odyssey-850_02	5	38	for	for	IN
homer-odyssey-850_02	5	39	him	-PRON-	PRP
homer-odyssey-850_02	5	40	.	.	.
homer-odyssey-850_02	6	1	Aegyptius	aegyptius	NNP
homer-odyssey-850_02	6	2	,	,	,
homer-odyssey-850_02	6	3	a	a	DT
homer-odyssey-850_02	6	4	man	man	NN
homer-odyssey-850_02	6	5	bent	bend	VBD
homer-odyssey-850_02	6	6	double	double	JJ
homer-odyssey-850_02	6	7	with	with	IN
homer-odyssey-850_02	6	8	age	age	NN
homer-odyssey-850_02	6	9	,	,	,
homer-odyssey-850_02	6	10	and	and	CC
homer-odyssey-850_02	6	11	of	of	IN
homer-odyssey-850_02	6	12	infinite	infinite	JJ
homer-odyssey-850_02	6	13	experience	experience	NN
homer-odyssey-850_02	6	14	,	,	,
homer-odyssey-850_02	6	15	was	be	VBD
homer-odyssey-850_02	6	16	the	the	DT
homer-odyssey-850_02	6	17	first	first	JJ
homer-odyssey-850_02	6	18	to	to	TO
homer-odyssey-850_02	6	19	speak	speak	VB
homer-odyssey-850_02	6	20	.	.	.
homer-odyssey-850_02	7	1	His	-PRON-	PRP$
homer-odyssey-850_02	7	2	son	son	NN
homer-odyssey-850_02	7	3	Antiphus	antiphus	NNP
homer-odyssey-850_02	7	4	had	have	VBD
homer-odyssey-850_02	7	5	gone	go	VBN
homer-odyssey-850_02	7	6	with	with	IN
homer-odyssey-850_02	7	7	Ulysses	ulyss	NNS
homer-odyssey-850_02	7	8	to	to	IN
homer-odyssey-850_02	7	9	Ilius	ilius	NNP
homer-odyssey-850_02	7	10	,	,	,
homer-odyssey-850_02	7	11	land	land	NN
homer-odyssey-850_02	7	12	of	of	IN
homer-odyssey-850_02	7	13	noble	noble	JJ
homer-odyssey-850_02	7	14	steeds	steed	NNS
homer-odyssey-850_02	7	15	,	,	,
homer-odyssey-850_02	7	16	but	but	CC
homer-odyssey-850_02	7	17	the	the	DT
homer-odyssey-850_02	7	18	savage	savage	NN
homer-odyssey-850_02	7	19	Cyclops	cyclops	NNPS
homer-odyssey-850_02	7	20	had	have	VBD
homer-odyssey-850_02	7	21	killed	kill	VBN
homer-odyssey-850_02	7	22	him	-PRON-	PRP
homer-odyssey-850_02	7	23	when	when	WRB
homer-odyssey-850_02	7	24	they	-PRON-	PRP
homer-odyssey-850_02	7	25	were	be	VBD
homer-odyssey-850_02	7	26	all	all	RB
homer-odyssey-850_02	7	27	shut	shut	VBN
homer-odyssey-850_02	7	28	up	up	RP
homer-odyssey-850_02	7	29	in	in	IN
homer-odyssey-850_02	7	30	the	the	DT
homer-odyssey-850_02	7	31	cave	cave	NN
homer-odyssey-850_02	7	32	,	,	,
homer-odyssey-850_02	7	33	and	and	CC
homer-odyssey-850_02	7	34	had	have	VBD
homer-odyssey-850_02	7	35	cooked	cook	VBN
homer-odyssey-850_02	7	36	his	-PRON-	PRP$
homer-odyssey-850_02	7	37	last	last	JJ
homer-odyssey-850_02	7	38	dinner	dinner	NN
homer-odyssey-850_02	7	39	for	for	IN
homer-odyssey-850_02	7	40	him	-PRON-	PRP
homer-odyssey-850_02	7	41	.	.	.
homer-odyssey-850_02	8	1	{	{	-LRB-
homer-odyssey-850_02	8	2	17	17	CD
homer-odyssey-850_02	8	3	}	}	-RRB-
homer-odyssey-850_02	8	4	He	-PRON-	PRP
homer-odyssey-850_02	8	5	had	have	VBD
homer-odyssey-850_02	8	6	three	three	CD
homer-odyssey-850_02	8	7	sons	son	NNS
homer-odyssey-850_02	8	8	left	leave	VBN
homer-odyssey-850_02	8	9	,	,	,
homer-odyssey-850_02	8	10	of	of	IN
homer-odyssey-850_02	8	11	whom	whom	WP
homer-odyssey-850_02	8	12	two	two	CD
homer-odyssey-850_02	8	13	still	still	RB
homer-odyssey-850_02	8	14	worked	work	VBD
homer-odyssey-850_02	8	15	on	on	IN
homer-odyssey-850_02	8	16	their	-PRON-	PRP$
homer-odyssey-850_02	8	17	father	father	NN
homer-odyssey-850_02	8	18	's	's	POS
homer-odyssey-850_02	8	19	land	land	NN
homer-odyssey-850_02	8	20	,	,	,
homer-odyssey-850_02	8	21	while	while	IN
homer-odyssey-850_02	8	22	the	the	DT
homer-odyssey-850_02	8	23	third	third	JJ
homer-odyssey-850_02	8	24	,	,	,
homer-odyssey-850_02	8	25	Eurynomus	eurynomus	NNP
homer-odyssey-850_02	8	26	,	,	,
homer-odyssey-850_02	8	27	was	be	VBD
homer-odyssey-850_02	8	28	one	one	CD
homer-odyssey-850_02	8	29	of	of	IN
homer-odyssey-850_02	8	30	the	the	DT
homer-odyssey-850_02	8	31	suitors	suitor	NNS
homer-odyssey-850_02	8	32	;	;	:
homer-odyssey-850_02	8	33	nevertheless	nevertheless	RB
homer-odyssey-850_02	8	34	their	-PRON-	PRP$
homer-odyssey-850_02	8	35	father	father	NN
homer-odyssey-850_02	8	36	could	could	MD
homer-odyssey-850_02	8	37	not	not	RB
homer-odyssey-850_02	8	38	get	get	VB
homer-odyssey-850_02	8	39	over	over	IN
homer-odyssey-850_02	8	40	the	the	DT
homer-odyssey-850_02	8	41	loss	loss	NN
homer-odyssey-850_02	8	42	of	of	IN
homer-odyssey-850_02	8	43	Antiphus	antiphus	NNP
homer-odyssey-850_02	8	44	,	,	,
homer-odyssey-850_02	8	45	and	and	CC
homer-odyssey-850_02	8	46	was	be	VBD
homer-odyssey-850_02	8	47	still	still	RB
homer-odyssey-850_02	8	48	weeping	weep	VBG
homer-odyssey-850_02	8	49	for	for	IN
homer-odyssey-850_02	8	50	him	-PRON-	PRP
homer-odyssey-850_02	8	51	when	when	WRB
homer-odyssey-850_02	8	52	he	-PRON-	PRP
homer-odyssey-850_02	8	53	began	begin	VBD
homer-odyssey-850_02	8	54	his	-PRON-	PRP$
homer-odyssey-850_02	8	55	speech	speech	NN
homer-odyssey-850_02	8	56	.	.	.
homer-odyssey-850_02	9	1	"	"	``
homer-odyssey-850_02	9	2	Men	man	NNS
homer-odyssey-850_02	9	3	of	of	IN
homer-odyssey-850_02	9	4	Ithaca	ithaca	NNP
homer-odyssey-850_02	9	5	,	,	,
homer-odyssey-850_02	9	6	"	"	''
homer-odyssey-850_02	9	7	he	-PRON-	PRP
homer-odyssey-850_02	9	8	said	say	VBD
homer-odyssey-850_02	9	9	,	,	,
homer-odyssey-850_02	9	10	"	"	``
homer-odyssey-850_02	9	11	hear	hear	VBP
homer-odyssey-850_02	9	12	my	-PRON-	PRP$
homer-odyssey-850_02	9	13	words	word	NNS
homer-odyssey-850_02	9	14	.	.	.
homer-odyssey-850_02	10	1	From	from	IN
homer-odyssey-850_02	10	2	the	the	DT
homer-odyssey-850_02	10	3	day	day	NN
homer-odyssey-850_02	10	4	Ulysses	ulysses	NNPS
homer-odyssey-850_02	10	5	left	leave	VBD
homer-odyssey-850_02	10	6	us	-PRON-	PRP
homer-odyssey-850_02	10	7	there	there	EX
homer-odyssey-850_02	10	8	has	have	VBZ
homer-odyssey-850_02	10	9	been	be	VBN
homer-odyssey-850_02	10	10	no	no	DT
homer-odyssey-850_02	10	11	meeting	meeting	NN
homer-odyssey-850_02	10	12	of	of	IN
homer-odyssey-850_02	10	13	our	-PRON-	PRP$
homer-odyssey-850_02	10	14	councillors	councillor	NNS
homer-odyssey-850_02	10	15	until	until	IN
homer-odyssey-850_02	10	16	now	now	RB
homer-odyssey-850_02	10	17	;	;	:
homer-odyssey-850_02	10	18	who	who	WP
homer-odyssey-850_02	10	19	then	then	RB
homer-odyssey-850_02	10	20	can	can	MD
homer-odyssey-850_02	10	21	it	-PRON-	PRP
homer-odyssey-850_02	10	22	be	be	VB
homer-odyssey-850_02	10	23	,	,	,
homer-odyssey-850_02	10	24	whether	whether	IN
homer-odyssey-850_02	10	25	old	old	JJ
homer-odyssey-850_02	10	26	or	or	CC
homer-odyssey-850_02	10	27	young	young	JJ
homer-odyssey-850_02	10	28	,	,	,
homer-odyssey-850_02	10	29	that	that	WDT
homer-odyssey-850_02	10	30	finds	find	VBZ
homer-odyssey-850_02	10	31	it	-PRON-	PRP
homer-odyssey-850_02	10	32	so	so	RB
homer-odyssey-850_02	10	33	necessary	necessary	JJ
homer-odyssey-850_02	10	34	to	to	TO
homer-odyssey-850_02	10	35	convene	convene	VB
homer-odyssey-850_02	10	36	us	-PRON-	PRP
homer-odyssey-850_02	10	37	?	?	.
homer-odyssey-850_02	11	1	Has	have	VBZ
homer-odyssey-850_02	11	2	he	-PRON-	PRP
homer-odyssey-850_02	11	3	got	get	VBD
homer-odyssey-850_02	11	4	wind	wind	NN
homer-odyssey-850_02	11	5	of	of	IN
homer-odyssey-850_02	11	6	some	some	DT
homer-odyssey-850_02	11	7	host	host	NN
homer-odyssey-850_02	11	8	approaching	approach	VBG
homer-odyssey-850_02	11	9	,	,	,
homer-odyssey-850_02	11	10	and	and	CC
homer-odyssey-850_02	11	11	does	do	VBZ
homer-odyssey-850_02	11	12	he	-PRON-	PRP
homer-odyssey-850_02	11	13	wish	wish	VB
homer-odyssey-850_02	11	14	to	to	TO
homer-odyssey-850_02	11	15	warn	warn	VB
homer-odyssey-850_02	11	16	us	-PRON-	PRP
homer-odyssey-850_02	11	17	,	,	,
homer-odyssey-850_02	11	18	or	or	CC
homer-odyssey-850_02	11	19	would	would	MD
homer-odyssey-850_02	11	20	he	-PRON-	PRP
homer-odyssey-850_02	11	21	speak	speak	VB
homer-odyssey-850_02	11	22	upon	upon	IN
homer-odyssey-850_02	11	23	some	some	DT
homer-odyssey-850_02	11	24	other	other	JJ
homer-odyssey-850_02	11	25	matter	matter	NN
homer-odyssey-850_02	11	26	of	of	IN
homer-odyssey-850_02	11	27	public	public	JJ
homer-odyssey-850_02	11	28	moment	moment	NN
homer-odyssey-850_02	11	29	?	?	.
homer-odyssey-850_02	12	1	I	-PRON-	PRP
homer-odyssey-850_02	12	2	am	be	VBP
homer-odyssey-850_02	12	3	sure	sure	JJ
homer-odyssey-850_02	12	4	he	-PRON-	PRP
homer-odyssey-850_02	12	5	is	be	VBZ
homer-odyssey-850_02	12	6	an	an	DT
homer-odyssey-850_02	12	7	excellent	excellent	JJ
homer-odyssey-850_02	12	8	person	person	NN
homer-odyssey-850_02	12	9	,	,	,
homer-odyssey-850_02	12	10	and	and	CC
homer-odyssey-850_02	12	11	I	-PRON-	PRP
homer-odyssey-850_02	12	12	hope	hope	VBP
homer-odyssey-850_02	12	13	Jove	jove	NNP
homer-odyssey-850_02	12	14	will	will	MD
homer-odyssey-850_02	12	15	grant	grant	VB
homer-odyssey-850_02	12	16	him	-PRON-	PRP
homer-odyssey-850_02	12	17	his	-PRON-	PRP$
homer-odyssey-850_02	12	18	heart	heart	NN
homer-odyssey-850_02	12	19	's	's	POS
homer-odyssey-850_02	12	20	desire	desire	NN
homer-odyssey-850_02	12	21	.	.	.
homer-odyssey-850_02	12	22	"	"	''
homer-odyssey-850_02	13	1	Telemachus	telemachus	NNP
homer-odyssey-850_02	13	2	took	take	VBD
homer-odyssey-850_02	13	3	this	this	DT
homer-odyssey-850_02	13	4	speech	speech	NN
homer-odyssey-850_02	13	5	as	as	IN
homer-odyssey-850_02	13	6	of	of	IN
homer-odyssey-850_02	13	7	good	good	JJ
homer-odyssey-850_02	13	8	omen	oman	NNS
homer-odyssey-850_02	13	9	and	and	CC
homer-odyssey-850_02	13	10	rose	rise	VBD
homer-odyssey-850_02	13	11	at	at	IN
homer-odyssey-850_02	13	12	once	once	RB
homer-odyssey-850_02	13	13	,	,	,
homer-odyssey-850_02	13	14	for	for	IN
homer-odyssey-850_02	13	15	he	-PRON-	PRP
homer-odyssey-850_02	13	16	was	be	VBD
homer-odyssey-850_02	13	17	bursting	burst	VBG
homer-odyssey-850_02	13	18	with	with	IN
homer-odyssey-850_02	13	19	what	what	WP
homer-odyssey-850_02	13	20	he	-PRON-	PRP
homer-odyssey-850_02	13	21	had	have	VBD
homer-odyssey-850_02	13	22	to	to	TO
homer-odyssey-850_02	13	23	say	say	VB
homer-odyssey-850_02	13	24	.	.	.
homer-odyssey-850_02	14	1	He	-PRON-	PRP
homer-odyssey-850_02	14	2	stood	stand	VBD
homer-odyssey-850_02	14	3	in	in	IN
homer-odyssey-850_02	14	4	the	the	DT
homer-odyssey-850_02	14	5	middle	middle	NN
homer-odyssey-850_02	14	6	of	of	IN
homer-odyssey-850_02	14	7	the	the	DT
homer-odyssey-850_02	14	8	assembly	assembly	NN
homer-odyssey-850_02	14	9	and	and	CC
homer-odyssey-850_02	14	10	the	the	DT
homer-odyssey-850_02	14	11	good	good	JJ
homer-odyssey-850_02	14	12	herald	herald	NN
homer-odyssey-850_02	14	13	Pisenor	pisenor	NNP
homer-odyssey-850_02	14	14	brought	bring	VBD
homer-odyssey-850_02	14	15	him	-PRON-	PRP
homer-odyssey-850_02	14	16	his	-PRON-	PRP$
homer-odyssey-850_02	14	17	staff	staff	NN
homer-odyssey-850_02	14	18	.	.	.
homer-odyssey-850_02	15	1	Then	then	RB
homer-odyssey-850_02	15	2	,	,	,
homer-odyssey-850_02	15	3	turning	turn	VBG
homer-odyssey-850_02	15	4	to	to	IN
homer-odyssey-850_02	15	5	Aegyptius	aegyptius	NNP
homer-odyssey-850_02	15	6	,	,	,
homer-odyssey-850_02	15	7	"	"	''
homer-odyssey-850_02	15	8	Sir	sir	NNP
homer-odyssey-850_02	15	9	,	,	,
homer-odyssey-850_02	15	10	"	"	''
homer-odyssey-850_02	15	11	said	say	VBD
homer-odyssey-850_02	15	12	he	-PRON-	PRP
homer-odyssey-850_02	15	13	,	,	,
homer-odyssey-850_02	15	14	"	"	``
homer-odyssey-850_02	15	15	it	-PRON-	PRP
homer-odyssey-850_02	15	16	is	be	VBZ
homer-odyssey-850_02	15	17	I	-PRON-	PRP
homer-odyssey-850_02	15	18	,	,	,
homer-odyssey-850_02	15	19	as	as	IN
homer-odyssey-850_02	15	20	you	-PRON-	PRP
homer-odyssey-850_02	15	21	will	will	MD
homer-odyssey-850_02	15	22	shortly	shortly	RB
homer-odyssey-850_02	15	23	learn	learn	VB
homer-odyssey-850_02	15	24	,	,	,
homer-odyssey-850_02	15	25	who	who	WP
homer-odyssey-850_02	15	26	have	have	VBP
homer-odyssey-850_02	15	27	convened	convene	VBN
homer-odyssey-850_02	15	28	you	-PRON-	PRP
homer-odyssey-850_02	15	29	,	,	,
homer-odyssey-850_02	15	30	for	for	IN
homer-odyssey-850_02	15	31	it	-PRON-	PRP
homer-odyssey-850_02	15	32	is	be	VBZ
homer-odyssey-850_02	15	33	I	-PRON-	PRP
homer-odyssey-850_02	15	34	who	who	WP
homer-odyssey-850_02	15	35	am	be	VBP
homer-odyssey-850_02	15	36	the	the	DT
homer-odyssey-850_02	15	37	most	most	RBS
homer-odyssey-850_02	15	38	aggrieved	aggrieved	JJ
homer-odyssey-850_02	15	39	.	.	.
homer-odyssey-850_02	16	1	I	-PRON-	PRP
homer-odyssey-850_02	16	2	have	have	VBP
homer-odyssey-850_02	16	3	not	not	RB
homer-odyssey-850_02	16	4	got	get	VBN
homer-odyssey-850_02	16	5	wind	wind	NN
homer-odyssey-850_02	16	6	of	of	IN
homer-odyssey-850_02	16	7	any	any	DT
homer-odyssey-850_02	16	8	host	host	NN
homer-odyssey-850_02	16	9	approaching	approach	VBG
homer-odyssey-850_02	16	10	about	about	IN
homer-odyssey-850_02	16	11	which	which	WDT
homer-odyssey-850_02	16	12	I	-PRON-	PRP
homer-odyssey-850_02	16	13	would	would	MD
homer-odyssey-850_02	16	14	warn	warn	VB
homer-odyssey-850_02	16	15	you	-PRON-	PRP
homer-odyssey-850_02	16	16	,	,	,
homer-odyssey-850_02	16	17	nor	nor	CC
homer-odyssey-850_02	16	18	is	be	VBZ
homer-odyssey-850_02	16	19	there	there	EX
homer-odyssey-850_02	16	20	any	any	DT
homer-odyssey-850_02	16	21	matter	matter	NN
homer-odyssey-850_02	16	22	of	of	IN
homer-odyssey-850_02	16	23	public	public	JJ
homer-odyssey-850_02	16	24	moment	moment	NN
homer-odyssey-850_02	16	25	on	on	IN
homer-odyssey-850_02	16	26	which	which	WDT
homer-odyssey-850_02	16	27	I	-PRON-	PRP
homer-odyssey-850_02	16	28	would	would	MD
homer-odyssey-850_02	16	29	speak	speak	VB
homer-odyssey-850_02	16	30	.	.	.
homer-odyssey-850_02	17	1	My	-PRON-	PRP$
homer-odyssey-850_02	17	2	grievance	grievance	NN
homer-odyssey-850_02	17	3	is	be	VBZ
homer-odyssey-850_02	17	4	purely	purely	RB
homer-odyssey-850_02	17	5	personal	personal	JJ
homer-odyssey-850_02	17	6	,	,	,
homer-odyssey-850_02	17	7	and	and	CC
homer-odyssey-850_02	17	8	turns	turn	VBZ
homer-odyssey-850_02	17	9	on	on	RP
homer-odyssey-850_02	17	10	two	two	CD
homer-odyssey-850_02	17	11	great	great	JJ
homer-odyssey-850_02	17	12	misfortunes	misfortune	NNS
homer-odyssey-850_02	17	13	which	which	WDT
homer-odyssey-850_02	17	14	have	have	VBP
homer-odyssey-850_02	17	15	fallen	fall	VBN
homer-odyssey-850_02	17	16	upon	upon	IN
homer-odyssey-850_02	17	17	my	-PRON-	PRP$
homer-odyssey-850_02	17	18	house	house	NN
homer-odyssey-850_02	17	19	.	.	.
homer-odyssey-850_02	18	1	The	the	DT
homer-odyssey-850_02	18	2	first	first	JJ
homer-odyssey-850_02	18	3	of	of	IN
homer-odyssey-850_02	18	4	these	these	DT
homer-odyssey-850_02	18	5	is	be	VBZ
homer-odyssey-850_02	18	6	the	the	DT
homer-odyssey-850_02	18	7	loss	loss	NN
homer-odyssey-850_02	18	8	of	of	IN
homer-odyssey-850_02	18	9	my	-PRON-	PRP$
homer-odyssey-850_02	18	10	excellent	excellent	JJ
homer-odyssey-850_02	18	11	father	father	NN
homer-odyssey-850_02	18	12	,	,	,
homer-odyssey-850_02	18	13	who	who	WP
homer-odyssey-850_02	18	14	was	be	VBD
homer-odyssey-850_02	18	15	chief	chief	JJ
homer-odyssey-850_02	18	16	among	among	IN
homer-odyssey-850_02	18	17	all	all	DT
homer-odyssey-850_02	18	18	you	-PRON-	PRP
homer-odyssey-850_02	18	19	here	here	RB
homer-odyssey-850_02	18	20	present	present	VBP
homer-odyssey-850_02	18	21	,	,	,
homer-odyssey-850_02	18	22	and	and	CC
homer-odyssey-850_02	18	23	was	be	VBD
homer-odyssey-850_02	18	24	like	like	IN
homer-odyssey-850_02	18	25	a	a	DT
homer-odyssey-850_02	18	26	father	father	NN
homer-odyssey-850_02	18	27	to	to	IN
homer-odyssey-850_02	18	28	every	every	DT
homer-odyssey-850_02	18	29	one	one	CD
homer-odyssey-850_02	18	30	of	of	IN
homer-odyssey-850_02	18	31	you	-PRON-	PRP
homer-odyssey-850_02	18	32	;	;	:
homer-odyssey-850_02	18	33	the	the	DT
homer-odyssey-850_02	18	34	second	second	JJ
homer-odyssey-850_02	18	35	is	be	VBZ
homer-odyssey-850_02	18	36	much	much	RB
homer-odyssey-850_02	18	37	more	more	RBR
homer-odyssey-850_02	18	38	serious	serious	JJ
homer-odyssey-850_02	18	39	,	,	,
homer-odyssey-850_02	18	40	and	and	CC
homer-odyssey-850_02	18	41	ere	ere	RB
homer-odyssey-850_02	18	42	long	long	JJ
homer-odyssey-850_02	18	43	will	will	MD
homer-odyssey-850_02	18	44	be	be	VB
homer-odyssey-850_02	18	45	the	the	DT
homer-odyssey-850_02	18	46	utter	utter	JJ
homer-odyssey-850_02	18	47	ruin	ruin	NN
homer-odyssey-850_02	18	48	of	of	IN
homer-odyssey-850_02	18	49	my	-PRON-	PRP$
homer-odyssey-850_02	18	50	estate	estate	NN
homer-odyssey-850_02	18	51	.	.	.
homer-odyssey-850_02	19	1	The	the	DT
homer-odyssey-850_02	19	2	sons	son	NNS
homer-odyssey-850_02	19	3	of	of	IN
homer-odyssey-850_02	19	4	all	all	PDT
homer-odyssey-850_02	19	5	the	the	DT
homer-odyssey-850_02	19	6	chief	chief	JJ
homer-odyssey-850_02	19	7	men	man	NNS
homer-odyssey-850_02	19	8	among	among	IN
homer-odyssey-850_02	19	9	you	-PRON-	PRP
homer-odyssey-850_02	19	10	are	be	VBP
homer-odyssey-850_02	19	11	pestering	pester	VBG
homer-odyssey-850_02	19	12	my	-PRON-	PRP$
homer-odyssey-850_02	19	13	mother	mother	NN
homer-odyssey-850_02	19	14	to	to	TO
homer-odyssey-850_02	19	15	marry	marry	VB
homer-odyssey-850_02	19	16	them	-PRON-	PRP
homer-odyssey-850_02	19	17	against	against	IN
homer-odyssey-850_02	19	18	her	-PRON-	PRP$
homer-odyssey-850_02	19	19	will	will	NN
homer-odyssey-850_02	19	20	.	.	.
homer-odyssey-850_02	20	1	They	-PRON-	PRP
homer-odyssey-850_02	20	2	are	be	VBP
homer-odyssey-850_02	20	3	afraid	afraid	JJ
homer-odyssey-850_02	20	4	to	to	TO
homer-odyssey-850_02	20	5	go	go	VB
homer-odyssey-850_02	20	6	to	to	IN
homer-odyssey-850_02	20	7	her	-PRON-	PRP$
homer-odyssey-850_02	20	8	father	father	NN
homer-odyssey-850_02	20	9	Icarius	icarius	NNP
homer-odyssey-850_02	20	10	,	,	,
homer-odyssey-850_02	20	11	asking	ask	VBG
homer-odyssey-850_02	20	12	him	-PRON-	PRP
homer-odyssey-850_02	20	13	to	to	TO
homer-odyssey-850_02	20	14	choose	choose	VB
homer-odyssey-850_02	20	15	the	the	DT
homer-odyssey-850_02	20	16	one	one	NN
homer-odyssey-850_02	20	17	he	-PRON-	PRP
homer-odyssey-850_02	20	18	likes	like	VBZ
homer-odyssey-850_02	20	19	best	good	JJS
homer-odyssey-850_02	20	20	,	,	,
homer-odyssey-850_02	20	21	and	and	CC
homer-odyssey-850_02	20	22	to	to	TO
homer-odyssey-850_02	20	23	provide	provide	VB
homer-odyssey-850_02	20	24	marriage	marriage	NN
homer-odyssey-850_02	20	25	gifts	gift	NNS
homer-odyssey-850_02	20	26	for	for	IN
homer-odyssey-850_02	20	27	his	-PRON-	PRP$
homer-odyssey-850_02	20	28	daughter	daughter	NN
homer-odyssey-850_02	20	29	,	,	,
homer-odyssey-850_02	20	30	but	but	CC
homer-odyssey-850_02	20	31	day	day	NN
homer-odyssey-850_02	20	32	by	by	IN
homer-odyssey-850_02	20	33	day	day	NN
homer-odyssey-850_02	20	34	they	-PRON-	PRP
homer-odyssey-850_02	20	35	keep	keep	VBP
homer-odyssey-850_02	20	36	hanging	hang	VBG
homer-odyssey-850_02	20	37	about	about	IN
homer-odyssey-850_02	20	38	my	-PRON-	PRP$
homer-odyssey-850_02	20	39	father	father	NN
homer-odyssey-850_02	20	40	's	's	POS
homer-odyssey-850_02	20	41	house	house	NN
homer-odyssey-850_02	20	42	,	,	,
homer-odyssey-850_02	20	43	sacrificing	sacrifice	VBG
homer-odyssey-850_02	20	44	our	-PRON-	PRP$
homer-odyssey-850_02	20	45	oxen	oxen	NN
homer-odyssey-850_02	20	46	,	,	,
homer-odyssey-850_02	20	47	sheep	sheep	NN
homer-odyssey-850_02	20	48	,	,	,
homer-odyssey-850_02	20	49	and	and	CC
homer-odyssey-850_02	20	50	fat	fat	JJ
homer-odyssey-850_02	20	51	goats	goat	NNS
homer-odyssey-850_02	20	52	for	for	IN
homer-odyssey-850_02	20	53	their	-PRON-	PRP$
homer-odyssey-850_02	20	54	banquets	banquet	NNS
homer-odyssey-850_02	20	55	,	,	,
homer-odyssey-850_02	20	56	and	and	CC
homer-odyssey-850_02	20	57	never	never	RB
homer-odyssey-850_02	20	58	giving	give	VBG
homer-odyssey-850_02	20	59	so	so	RB
homer-odyssey-850_02	20	60	much	much	RB
homer-odyssey-850_02	20	61	as	as	IN
homer-odyssey-850_02	20	62	a	a	DT
homer-odyssey-850_02	20	63	thought	thought	NN
homer-odyssey-850_02	20	64	to	to	IN
homer-odyssey-850_02	20	65	the	the	DT
homer-odyssey-850_02	20	66	quantity	quantity	NN
homer-odyssey-850_02	20	67	of	of	IN
homer-odyssey-850_02	20	68	wine	wine	NN
homer-odyssey-850_02	20	69	they	-PRON-	PRP
homer-odyssey-850_02	20	70	drink	drink	VBP
homer-odyssey-850_02	20	71	.	.	.
homer-odyssey-850_02	21	1	No	no	DT
homer-odyssey-850_02	21	2	estate	estate	NN
homer-odyssey-850_02	21	3	can	can	MD
homer-odyssey-850_02	21	4	stand	stand	VB
homer-odyssey-850_02	21	5	such	such	JJ
homer-odyssey-850_02	21	6	recklessness	recklessness	NN
homer-odyssey-850_02	21	7	;	;	:
homer-odyssey-850_02	21	8	we	-PRON-	PRP
homer-odyssey-850_02	21	9	have	have	VBP
homer-odyssey-850_02	21	10	now	now	RB
homer-odyssey-850_02	21	11	no	no	DT
homer-odyssey-850_02	21	12	Ulysses	ulyss	NNS
homer-odyssey-850_02	21	13	to	to	TO
homer-odyssey-850_02	21	14	ward	ward	VB
homer-odyssey-850_02	21	15	off	off	IN
homer-odyssey-850_02	21	16	harm	harm	NN
homer-odyssey-850_02	21	17	from	from	IN
homer-odyssey-850_02	21	18	our	-PRON-	PRP$
homer-odyssey-850_02	21	19	doors	door	NNS
homer-odyssey-850_02	21	20	,	,	,
homer-odyssey-850_02	21	21	and	and	CC
homer-odyssey-850_02	21	22	I	-PRON-	PRP
homer-odyssey-850_02	21	23	can	can	MD
homer-odyssey-850_02	21	24	not	not	RB
homer-odyssey-850_02	21	25	hold	hold	VB
homer-odyssey-850_02	21	26	my	-PRON-	PRP$
homer-odyssey-850_02	21	27	own	own	JJ
homer-odyssey-850_02	21	28	against	against	IN
homer-odyssey-850_02	21	29	them	-PRON-	PRP
homer-odyssey-850_02	21	30	.	.	.
homer-odyssey-850_02	22	1	I	-PRON-	PRP
homer-odyssey-850_02	22	2	shall	shall	MD
homer-odyssey-850_02	22	3	never	never	RB
homer-odyssey-850_02	22	4	all	all	DT
homer-odyssey-850_02	22	5	my	-PRON-	PRP$
homer-odyssey-850_02	22	6	days	day	NNS
homer-odyssey-850_02	22	7	be	be	VB
homer-odyssey-850_02	22	8	as	as	RB
homer-odyssey-850_02	22	9	good	good	JJ
homer-odyssey-850_02	22	10	a	a	DT
homer-odyssey-850_02	22	11	man	man	NN
homer-odyssey-850_02	22	12	as	as	IN
homer-odyssey-850_02	22	13	he	-PRON-	PRP
homer-odyssey-850_02	22	14	was	be	VBD
homer-odyssey-850_02	22	15	,	,	,
homer-odyssey-850_02	22	16	still	still	RB
homer-odyssey-850_02	22	17	I	-PRON-	PRP
homer-odyssey-850_02	22	18	would	would	MD
homer-odyssey-850_02	22	19	indeed	indeed	RB
homer-odyssey-850_02	22	20	defend	defend	VB
homer-odyssey-850_02	22	21	myself	-PRON-	PRP
homer-odyssey-850_02	22	22	if	if	IN
homer-odyssey-850_02	22	23	I	-PRON-	PRP
homer-odyssey-850_02	22	24	had	have	VBD
homer-odyssey-850_02	22	25	power	power	NN
homer-odyssey-850_02	22	26	to	to	TO
homer-odyssey-850_02	22	27	do	do	VB
homer-odyssey-850_02	22	28	so	so	RB
homer-odyssey-850_02	22	29	,	,	,
homer-odyssey-850_02	22	30	for	for	IN
homer-odyssey-850_02	22	31	I	-PRON-	PRP
homer-odyssey-850_02	22	32	can	can	MD
homer-odyssey-850_02	22	33	not	not	RB
homer-odyssey-850_02	22	34	stand	stand	VB
homer-odyssey-850_02	22	35	such	such	JJ
homer-odyssey-850_02	22	36	treatment	treatment	NN
homer-odyssey-850_02	22	37	any	any	RB
homer-odyssey-850_02	22	38	longer	longer	RB
homer-odyssey-850_02	22	39	;	;	:
homer-odyssey-850_02	22	40	my	-PRON-	PRP$
homer-odyssey-850_02	22	41	house	house	NN
homer-odyssey-850_02	22	42	is	be	VBZ
homer-odyssey-850_02	22	43	being	be	VBG
homer-odyssey-850_02	22	44	disgraced	disgrace	VBN
homer-odyssey-850_02	22	45	and	and	CC
homer-odyssey-850_02	22	46	ruined	ruin	VBN
homer-odyssey-850_02	22	47	.	.	.
homer-odyssey-850_02	23	1	Have	have	VBP
homer-odyssey-850_02	23	2	respect	respect	NN
homer-odyssey-850_02	23	3	,	,	,
homer-odyssey-850_02	23	4	therefore	therefore	RB
homer-odyssey-850_02	23	5	,	,	,
homer-odyssey-850_02	23	6	to	to	IN
homer-odyssey-850_02	23	7	your	-PRON-	PRP$
homer-odyssey-850_02	23	8	own	own	JJ
homer-odyssey-850_02	23	9	consciences	conscience	NNS
homer-odyssey-850_02	23	10	and	and	CC
homer-odyssey-850_02	23	11	to	to	IN
homer-odyssey-850_02	23	12	public	public	JJ
homer-odyssey-850_02	23	13	opinion	opinion	NN
homer-odyssey-850_02	23	14	.	.	.
homer-odyssey-850_02	24	1	Fear	fear	NN
homer-odyssey-850_02	24	2	,	,	,
homer-odyssey-850_02	24	3	too	too	RB
homer-odyssey-850_02	24	4	,	,	,
homer-odyssey-850_02	24	5	the	the	DT
homer-odyssey-850_02	24	6	wrath	wrath	NN
homer-odyssey-850_02	24	7	of	of	IN
homer-odyssey-850_02	24	8	heaven	heaven	NNP
homer-odyssey-850_02	24	9	,	,	,
homer-odyssey-850_02	24	10	lest	lest	IN
homer-odyssey-850_02	24	11	the	the	DT
homer-odyssey-850_02	24	12	gods	god	NNS
homer-odyssey-850_02	24	13	should	should	MD
homer-odyssey-850_02	24	14	be	be	VB
homer-odyssey-850_02	24	15	displeased	displeased	JJ
homer-odyssey-850_02	24	16	and	and	CC
homer-odyssey-850_02	24	17	turn	turn	VB
homer-odyssey-850_02	24	18	upon	upon	IN
homer-odyssey-850_02	24	19	you	-PRON-	PRP
homer-odyssey-850_02	24	20	.	.	.
homer-odyssey-850_02	25	1	I	-PRON-	PRP
homer-odyssey-850_02	25	2	pray	pray	VBP
homer-odyssey-850_02	25	3	you	-PRON-	PRP
homer-odyssey-850_02	25	4	by	by	IN
homer-odyssey-850_02	25	5	Jove	jove	NNP
homer-odyssey-850_02	25	6	and	and	CC
homer-odyssey-850_02	25	7	Themis	themis	NNP
homer-odyssey-850_02	25	8	,	,	,
homer-odyssey-850_02	25	9	who	who	WP
homer-odyssey-850_02	25	10	is	be	VBZ
homer-odyssey-850_02	25	11	the	the	DT
homer-odyssey-850_02	25	12	beginning	beginning	NN
homer-odyssey-850_02	25	13	and	and	CC
homer-odyssey-850_02	25	14	the	the	DT
homer-odyssey-850_02	25	15	end	end	NN
homer-odyssey-850_02	25	16	of	of	IN
homer-odyssey-850_02	25	17	councils	council	NNS
homer-odyssey-850_02	25	18	,	,	,
homer-odyssey-850_02	25	19	[	[	-LRB-
homer-odyssey-850_02	25	20	do	do	VBP
homer-odyssey-850_02	25	21	not	not	RB
homer-odyssey-850_02	25	22	]	]	-RRB-
homer-odyssey-850_02	25	23	hold	hold	VB
homer-odyssey-850_02	25	24	back	back	RP
homer-odyssey-850_02	25	25	,	,	,
homer-odyssey-850_02	25	26	my	-PRON-	PRP$
homer-odyssey-850_02	25	27	friends	friend	NNS
homer-odyssey-850_02	25	28	,	,	,
homer-odyssey-850_02	25	29	and	and	CC
homer-odyssey-850_02	25	30	leave	leave	VB
homer-odyssey-850_02	25	31	me	-PRON-	PRP
homer-odyssey-850_02	25	32	singlehanded	singlehand	VBN
homer-odyssey-850_02	25	33	{	{	-LRB-
homer-odyssey-850_02	25	34	18}--unless	18}--unless	CD
homer-odyssey-850_02	25	35	it	-PRON-	PRP
homer-odyssey-850_02	25	36	be	be	VB
homer-odyssey-850_02	25	37	that	that	IN
homer-odyssey-850_02	25	38	my	-PRON-	PRP$
homer-odyssey-850_02	25	39	brave	brave	JJ
homer-odyssey-850_02	25	40	father	father	NN
homer-odyssey-850_02	25	41	Ulysses	ulysses	NNPS
homer-odyssey-850_02	25	42	did	do	VBD
homer-odyssey-850_02	25	43	some	some	DT
homer-odyssey-850_02	25	44	wrong	wrong	NN
homer-odyssey-850_02	25	45	to	to	IN
homer-odyssey-850_02	25	46	the	the	DT
homer-odyssey-850_02	25	47	Achaeans	achaeans	NNPS
homer-odyssey-850_02	25	48	which	which	WDT
homer-odyssey-850_02	25	49	you	-PRON-	PRP
homer-odyssey-850_02	25	50	would	would	MD
homer-odyssey-850_02	25	51	now	now	RB
homer-odyssey-850_02	25	52	avenge	avenge	VB
homer-odyssey-850_02	25	53	on	on	IN
homer-odyssey-850_02	25	54	me	-PRON-	PRP
homer-odyssey-850_02	25	55	,	,	,
homer-odyssey-850_02	25	56	by	by	IN
homer-odyssey-850_02	25	57	aiding	aid	VBG
homer-odyssey-850_02	25	58	and	and	CC
homer-odyssey-850_02	25	59	abetting	abet	VBG
homer-odyssey-850_02	25	60	these	these	DT
homer-odyssey-850_02	25	61	suitors	suitor	NNS
homer-odyssey-850_02	25	62	.	.	.
homer-odyssey-850_02	26	1	Moreover	moreover	RB
homer-odyssey-850_02	26	2	,	,	,
homer-odyssey-850_02	26	3	if	if	IN
homer-odyssey-850_02	26	4	I	-PRON-	PRP
homer-odyssey-850_02	26	5	am	be	VBP
homer-odyssey-850_02	26	6	to	to	TO
homer-odyssey-850_02	26	7	be	be	VB
homer-odyssey-850_02	26	8	eaten	eat	VBN
homer-odyssey-850_02	26	9	out	out	IN
homer-odyssey-850_02	26	10	of	of	IN
homer-odyssey-850_02	26	11	house	house	NN
homer-odyssey-850_02	26	12	and	and	CC
homer-odyssey-850_02	26	13	home	home	NN
homer-odyssey-850_02	26	14	at	at	RB
homer-odyssey-850_02	26	15	all	all	RB
homer-odyssey-850_02	26	16	,	,	,
homer-odyssey-850_02	26	17	I	-PRON-	PRP
homer-odyssey-850_02	26	18	had	have	VBD
homer-odyssey-850_02	26	19	rather	rather	RB
homer-odyssey-850_02	26	20	you	-PRON-	PRP
homer-odyssey-850_02	26	21	did	do	VBD
homer-odyssey-850_02	26	22	the	the	DT
homer-odyssey-850_02	26	23	eating	eat	VBG
homer-odyssey-850_02	26	24	yourselves	yourself	NNS
homer-odyssey-850_02	26	25	,	,	,
homer-odyssey-850_02	26	26	for	for	IN
homer-odyssey-850_02	26	27	I	-PRON-	PRP
homer-odyssey-850_02	26	28	could	could	MD
homer-odyssey-850_02	26	29	then	then	RB
homer-odyssey-850_02	26	30	take	take	VB
homer-odyssey-850_02	26	31	action	action	NN
homer-odyssey-850_02	26	32	against	against	IN
homer-odyssey-850_02	26	33	you	-PRON-	PRP
homer-odyssey-850_02	26	34	to	to	IN
homer-odyssey-850_02	26	35	some	some	DT
homer-odyssey-850_02	26	36	purpose	purpose	NN
homer-odyssey-850_02	26	37	,	,	,
homer-odyssey-850_02	26	38	and	and	CC
homer-odyssey-850_02	26	39	serve	serve	VB
homer-odyssey-850_02	26	40	you	-PRON-	PRP
homer-odyssey-850_02	26	41	with	with	IN
homer-odyssey-850_02	26	42	notices	notice	NNS
homer-odyssey-850_02	26	43	from	from	IN
homer-odyssey-850_02	26	44	house	house	NN
homer-odyssey-850_02	26	45	to	to	IN
homer-odyssey-850_02	26	46	house	house	NN
homer-odyssey-850_02	26	47	till	till	IN
homer-odyssey-850_02	26	48	I	-PRON-	PRP
homer-odyssey-850_02	26	49	got	get	VBD
homer-odyssey-850_02	26	50	paid	pay	VBN
homer-odyssey-850_02	26	51	in	in	IN
homer-odyssey-850_02	26	52	full	full	JJ
homer-odyssey-850_02	26	53	,	,	,
homer-odyssey-850_02	26	54	whereas	whereas	IN
homer-odyssey-850_02	26	55	now	now	RB
homer-odyssey-850_02	26	56	I	-PRON-	PRP
homer-odyssey-850_02	26	57	have	have	VBP
homer-odyssey-850_02	26	58	no	no	DT
homer-odyssey-850_02	26	59	remedy	remedy	NN
homer-odyssey-850_02	26	60	.	.	.
homer-odyssey-850_02	27	1	"	"	``
homer-odyssey-850_02	27	2	{	{	-LRB-
homer-odyssey-850_02	27	3	19	19	CD
homer-odyssey-850_02	27	4	}	}	-RRB-
homer-odyssey-850_02	27	5	With	with	IN
homer-odyssey-850_02	27	6	this	this	DT
homer-odyssey-850_02	27	7	Telemachus	telemachus	NNP
homer-odyssey-850_02	27	8	dashed	dash	VBD
homer-odyssey-850_02	27	9	his	-PRON-	PRP$
homer-odyssey-850_02	27	10	staff	staff	NN
homer-odyssey-850_02	27	11	to	to	IN
homer-odyssey-850_02	27	12	the	the	DT
homer-odyssey-850_02	27	13	ground	ground	NN
homer-odyssey-850_02	27	14	and	and	CC
homer-odyssey-850_02	27	15	burst	burst	VBD
homer-odyssey-850_02	27	16	into	into	IN
homer-odyssey-850_02	27	17	tears	tear	NNS
homer-odyssey-850_02	27	18	.	.	.
homer-odyssey-850_02	28	1	Every	every	DT
homer-odyssey-850_02	28	2	one	one	NN
homer-odyssey-850_02	28	3	was	be	VBD
homer-odyssey-850_02	28	4	very	very	RB
homer-odyssey-850_02	28	5	sorry	sorry	JJ
homer-odyssey-850_02	28	6	for	for	IN
homer-odyssey-850_02	28	7	him	-PRON-	PRP
homer-odyssey-850_02	28	8	,	,	,
homer-odyssey-850_02	28	9	but	but	CC
homer-odyssey-850_02	28	10	they	-PRON-	PRP
homer-odyssey-850_02	28	11	all	all	DT
homer-odyssey-850_02	28	12	sat	sit	VBD
homer-odyssey-850_02	28	13	still	still	RB
homer-odyssey-850_02	28	14	and	and	CC
homer-odyssey-850_02	28	15	no	no	DT
homer-odyssey-850_02	28	16	one	one	NN
homer-odyssey-850_02	28	17	ventured	venture	VBD
homer-odyssey-850_02	28	18	to	to	TO
homer-odyssey-850_02	28	19	make	make	VB
homer-odyssey-850_02	28	20	him	-PRON-	PRP
homer-odyssey-850_02	28	21	an	an	DT
homer-odyssey-850_02	28	22	angry	angry	JJ
homer-odyssey-850_02	28	23	answer	answer	NN
homer-odyssey-850_02	28	24	,	,	,
homer-odyssey-850_02	28	25	save	save	VB
homer-odyssey-850_02	28	26	only	only	RB
homer-odyssey-850_02	28	27	Antinous	antinous	NNP
homer-odyssey-850_02	28	28	,	,	,
homer-odyssey-850_02	28	29	who	who	WP
homer-odyssey-850_02	28	30	spoke	speak	VBD
homer-odyssey-850_02	28	31	thus	thus	RB
homer-odyssey-850_02	28	32	:	:	:
homer-odyssey-850_02	28	33	"	"	``
homer-odyssey-850_02	28	34	Telemachus	telemachus	NNP
homer-odyssey-850_02	28	35	,	,	,
homer-odyssey-850_02	28	36	insolent	insolent	JJ
homer-odyssey-850_02	28	37	braggart	braggart	NN
homer-odyssey-850_02	28	38	that	that	IN
homer-odyssey-850_02	28	39	you	-PRON-	PRP
homer-odyssey-850_02	28	40	are	be	VBP
homer-odyssey-850_02	28	41	,	,	,
homer-odyssey-850_02	28	42	how	how	WRB
homer-odyssey-850_02	28	43	dare	dare	VBP
homer-odyssey-850_02	28	44	you	-PRON-	PRP
homer-odyssey-850_02	28	45	try	try	VB
homer-odyssey-850_02	28	46	to	to	TO
homer-odyssey-850_02	28	47	throw	throw	VB
homer-odyssey-850_02	28	48	the	the	DT
homer-odyssey-850_02	28	49	blame	blame	NN
homer-odyssey-850_02	28	50	upon	upon	IN
homer-odyssey-850_02	28	51	us	-PRON-	PRP
homer-odyssey-850_02	28	52	suitors	suitor	NNS
homer-odyssey-850_02	28	53	?	?	.
homer-odyssey-850_02	29	1	It	-PRON-	PRP
homer-odyssey-850_02	29	2	is	be	VBZ
homer-odyssey-850_02	29	3	your	-PRON-	PRP$
homer-odyssey-850_02	29	4	mother	mother	NN
homer-odyssey-850_02	29	5	's	's	POS
homer-odyssey-850_02	29	6	fault	fault	NN
homer-odyssey-850_02	29	7	not	not	RB
homer-odyssey-850_02	29	8	ours	ours	PRP$
homer-odyssey-850_02	29	9	,	,	,
homer-odyssey-850_02	29	10	for	for	IN
homer-odyssey-850_02	29	11	she	-PRON-	PRP
homer-odyssey-850_02	29	12	is	be	VBZ
homer-odyssey-850_02	29	13	a	a	DT
homer-odyssey-850_02	29	14	very	very	RB
homer-odyssey-850_02	29	15	artful	artful	JJ
homer-odyssey-850_02	29	16	woman	woman	NN
homer-odyssey-850_02	29	17	.	.	.
homer-odyssey-850_02	30	1	This	this	DT
homer-odyssey-850_02	30	2	three	three	CD
homer-odyssey-850_02	30	3	years	year	NNS
homer-odyssey-850_02	30	4	past	past	JJ
homer-odyssey-850_02	30	5	,	,	,
homer-odyssey-850_02	30	6	and	and	CC
homer-odyssey-850_02	30	7	close	close	VB
homer-odyssey-850_02	30	8	on	on	IN
homer-odyssey-850_02	30	9	four	four	CD
homer-odyssey-850_02	30	10	,	,	,
homer-odyssey-850_02	30	11	she	-PRON-	PRP
homer-odyssey-850_02	30	12	had	have	VBD
homer-odyssey-850_02	30	13	been	be	VBN
homer-odyssey-850_02	30	14	driving	drive	VBG
homer-odyssey-850_02	30	15	us	-PRON-	PRP
homer-odyssey-850_02	30	16	out	out	IN
homer-odyssey-850_02	30	17	of	of	IN
homer-odyssey-850_02	30	18	our	-PRON-	PRP$
homer-odyssey-850_02	30	19	minds	mind	NNS
homer-odyssey-850_02	30	20	,	,	,
homer-odyssey-850_02	30	21	by	by	IN
homer-odyssey-850_02	30	22	encouraging	encourage	VBG
homer-odyssey-850_02	30	23	each	each	DT
homer-odyssey-850_02	30	24	one	one	CD
homer-odyssey-850_02	30	25	of	of	IN
homer-odyssey-850_02	30	26	us	-PRON-	PRP
homer-odyssey-850_02	30	27	,	,	,
homer-odyssey-850_02	30	28	and	and	CC
homer-odyssey-850_02	30	29	sending	send	VBG
homer-odyssey-850_02	30	30	him	-PRON-	PRP
homer-odyssey-850_02	30	31	messages	message	NNS
homer-odyssey-850_02	30	32	without	without	IN
homer-odyssey-850_02	30	33	meaning	mean	VBG
homer-odyssey-850_02	30	34	one	one	CD
homer-odyssey-850_02	30	35	word	word	NN
homer-odyssey-850_02	30	36	of	of	IN
homer-odyssey-850_02	30	37	what	what	WP
homer-odyssey-850_02	30	38	she	-PRON-	PRP
homer-odyssey-850_02	30	39	says	say	VBZ
homer-odyssey-850_02	30	40	.	.	.
homer-odyssey-850_02	31	1	And	and	CC
homer-odyssey-850_02	31	2	then	then	RB
homer-odyssey-850_02	31	3	there	there	EX
homer-odyssey-850_02	31	4	was	be	VBD
homer-odyssey-850_02	31	5	that	that	DT
homer-odyssey-850_02	31	6	other	other	JJ
homer-odyssey-850_02	31	7	trick	trick	NN
homer-odyssey-850_02	31	8	she	-PRON-	PRP
homer-odyssey-850_02	31	9	played	play	VBD
homer-odyssey-850_02	31	10	us	-PRON-	PRP
homer-odyssey-850_02	31	11	.	.	.
homer-odyssey-850_02	32	1	She	-PRON-	PRP
homer-odyssey-850_02	32	2	set	set	VBD
homer-odyssey-850_02	32	3	up	up	RP
homer-odyssey-850_02	32	4	a	a	DT
homer-odyssey-850_02	32	5	great	great	JJ
homer-odyssey-850_02	32	6	tambour	tambour	JJ
homer-odyssey-850_02	32	7	frame	frame	NN
homer-odyssey-850_02	32	8	in	in	IN
homer-odyssey-850_02	32	9	her	-PRON-	PRP$
homer-odyssey-850_02	32	10	room	room	NN
homer-odyssey-850_02	32	11	,	,	,
homer-odyssey-850_02	32	12	and	and	CC
homer-odyssey-850_02	32	13	began	begin	VBD
homer-odyssey-850_02	32	14	to	to	TO
homer-odyssey-850_02	32	15	work	work	VB
homer-odyssey-850_02	32	16	on	on	IN
homer-odyssey-850_02	32	17	an	an	DT
homer-odyssey-850_02	32	18	enormous	enormous	JJ
homer-odyssey-850_02	32	19	piece	piece	NN
homer-odyssey-850_02	32	20	of	of	IN
homer-odyssey-850_02	32	21	fine	fine	JJ
homer-odyssey-850_02	32	22	needlework	needlework	NN
homer-odyssey-850_02	32	23	.	.	.
homer-odyssey-850_02	32	24	'	'	''
homer-odyssey-850_02	33	1	Sweet	sweet	JJ
homer-odyssey-850_02	33	2	hearts	heart	NNS
homer-odyssey-850_02	33	3	,	,	,
homer-odyssey-850_02	33	4	'	'	''
homer-odyssey-850_02	33	5	said	say	VBD
homer-odyssey-850_02	33	6	she	-PRON-	PRP
homer-odyssey-850_02	33	7	,	,	,
homer-odyssey-850_02	33	8	'	'	``
homer-odyssey-850_02	33	9	Ulysses	ulyss	NNS
homer-odyssey-850_02	33	10	is	be	VBZ
homer-odyssey-850_02	33	11	indeed	indeed	RB
homer-odyssey-850_02	33	12	dead	dead	JJ
homer-odyssey-850_02	33	13	,	,	,
homer-odyssey-850_02	33	14	still	still	RB
homer-odyssey-850_02	33	15	do	do	VBP
homer-odyssey-850_02	33	16	not	not	RB
homer-odyssey-850_02	33	17	press	press	VB
homer-odyssey-850_02	33	18	me	-PRON-	PRP
homer-odyssey-850_02	33	19	to	to	TO
homer-odyssey-850_02	33	20	marry	marry	VB
homer-odyssey-850_02	33	21	again	again	RB
homer-odyssey-850_02	33	22	immediately	immediately	RB
homer-odyssey-850_02	33	23	,	,	,
homer-odyssey-850_02	33	24	wait--	wait--	JJ
homer-odyssey-850_02	33	25	for	for	IN
homer-odyssey-850_02	33	26	I	-PRON-	PRP
homer-odyssey-850_02	33	27	would	would	MD
homer-odyssey-850_02	33	28	not	not	RB
homer-odyssey-850_02	33	29	have	have	VB
homer-odyssey-850_02	33	30	skill	skill	NN
homer-odyssey-850_02	33	31	in	in	IN
homer-odyssey-850_02	33	32	needlework	needlework	NN
homer-odyssey-850_02	33	33	perish	perish	NN
homer-odyssey-850_02	33	34	unrecorded--	unrecorded--	RB
homer-odyssey-850_02	33	35	till	till	IN
homer-odyssey-850_02	33	36	I	-PRON-	PRP
homer-odyssey-850_02	33	37	have	have	VBP
homer-odyssey-850_02	33	38	completed	complete	VBN
homer-odyssey-850_02	33	39	a	a	DT
homer-odyssey-850_02	33	40	pall	pall	NN
homer-odyssey-850_02	33	41	for	for	IN
homer-odyssey-850_02	33	42	the	the	DT
homer-odyssey-850_02	33	43	hero	hero	NN
homer-odyssey-850_02	33	44	Laertes	laertes	NNP
homer-odyssey-850_02	33	45	,	,	,
homer-odyssey-850_02	33	46	to	to	TO
homer-odyssey-850_02	33	47	be	be	VB
homer-odyssey-850_02	33	48	in	in	IN
homer-odyssey-850_02	33	49	readiness	readiness	NN
homer-odyssey-850_02	33	50	against	against	IN
homer-odyssey-850_02	33	51	the	the	DT
homer-odyssey-850_02	33	52	time	time	NN
homer-odyssey-850_02	33	53	when	when	WRB
homer-odyssey-850_02	33	54	death	death	NN
homer-odyssey-850_02	33	55	shall	shall	MD
homer-odyssey-850_02	33	56	take	take	VB
homer-odyssey-850_02	33	57	him	-PRON-	PRP
homer-odyssey-850_02	33	58	.	.	.
homer-odyssey-850_02	34	1	He	-PRON-	PRP
homer-odyssey-850_02	34	2	is	be	VBZ
homer-odyssey-850_02	34	3	very	very	RB
homer-odyssey-850_02	34	4	rich	rich	JJ
homer-odyssey-850_02	34	5	,	,	,
homer-odyssey-850_02	34	6	and	and	CC
homer-odyssey-850_02	34	7	the	the	DT
homer-odyssey-850_02	34	8	women	woman	NNS
homer-odyssey-850_02	34	9	of	of	IN
homer-odyssey-850_02	34	10	the	the	DT
homer-odyssey-850_02	34	11	place	place	NN
homer-odyssey-850_02	34	12	will	will	MD
homer-odyssey-850_02	34	13	talk	talk	VB
homer-odyssey-850_02	34	14	if	if	IN
homer-odyssey-850_02	34	15	he	-PRON-	PRP
homer-odyssey-850_02	34	16	is	be	VBZ
homer-odyssey-850_02	34	17	laid	lay	VBN
homer-odyssey-850_02	34	18	out	out	RP
homer-odyssey-850_02	34	19	without	without	IN
homer-odyssey-850_02	34	20	a	a	DT
homer-odyssey-850_02	34	21	pall	pall	NN
homer-odyssey-850_02	34	22	.	.	.
homer-odyssey-850_02	34	23	'	'	''
homer-odyssey-850_02	35	1	"	"	``
homer-odyssey-850_02	35	2	This	this	DT
homer-odyssey-850_02	35	3	was	be	VBD
homer-odyssey-850_02	35	4	what	what	WP
homer-odyssey-850_02	35	5	she	-PRON-	PRP
homer-odyssey-850_02	35	6	said	say	VBD
homer-odyssey-850_02	35	7	,	,	,
homer-odyssey-850_02	35	8	and	and	CC
homer-odyssey-850_02	35	9	we	-PRON-	PRP
homer-odyssey-850_02	35	10	assented	assent	VBD
homer-odyssey-850_02	35	11	;	;	:
homer-odyssey-850_02	35	12	whereon	whereon	NN
homer-odyssey-850_02	35	13	we	-PRON-	PRP
homer-odyssey-850_02	35	14	could	could	MD
homer-odyssey-850_02	35	15	see	see	VB
homer-odyssey-850_02	35	16	her	-PRON-	PRP
homer-odyssey-850_02	35	17	working	work	VBG
homer-odyssey-850_02	35	18	on	on	IN
homer-odyssey-850_02	35	19	her	-PRON-	PRP$
homer-odyssey-850_02	35	20	great	great	JJ
homer-odyssey-850_02	35	21	web	web	NN
homer-odyssey-850_02	35	22	all	all	DT
homer-odyssey-850_02	35	23	day	day	NN
homer-odyssey-850_02	35	24	long	long	RB
homer-odyssey-850_02	35	25	,	,	,
homer-odyssey-850_02	35	26	but	but	CC
homer-odyssey-850_02	35	27	at	at	IN
homer-odyssey-850_02	35	28	night	night	NN
homer-odyssey-850_02	35	29	she	-PRON-	PRP
homer-odyssey-850_02	35	30	would	would	MD
homer-odyssey-850_02	35	31	unpick	unpick	VB
homer-odyssey-850_02	35	32	the	the	DT
homer-odyssey-850_02	35	33	stitches	stitch	NNS
homer-odyssey-850_02	35	34	again	again	RB
homer-odyssey-850_02	35	35	by	by	IN
homer-odyssey-850_02	35	36	torchlight	torchlight	NN
homer-odyssey-850_02	35	37	.	.	.
homer-odyssey-850_02	36	1	She	-PRON-	PRP
homer-odyssey-850_02	36	2	fooled	fool	VBD
homer-odyssey-850_02	36	3	us	-PRON-	PRP
homer-odyssey-850_02	36	4	in	in	IN
homer-odyssey-850_02	36	5	this	this	DT
homer-odyssey-850_02	36	6	way	way	NN
homer-odyssey-850_02	36	7	for	for	IN
homer-odyssey-850_02	36	8	three	three	CD
homer-odyssey-850_02	36	9	years	year	NNS
homer-odyssey-850_02	36	10	and	and	CC
homer-odyssey-850_02	36	11	we	-PRON-	PRP
homer-odyssey-850_02	36	12	never	never	RB
homer-odyssey-850_02	36	13	found	find	VBD
homer-odyssey-850_02	36	14	her	-PRON-	PRP
homer-odyssey-850_02	36	15	out	out	RP
homer-odyssey-850_02	36	16	,	,	,
homer-odyssey-850_02	36	17	but	but	CC
homer-odyssey-850_02	36	18	as	as	IN
homer-odyssey-850_02	36	19	time	time	NN
homer-odyssey-850_02	36	20	wore	wear	VBD
homer-odyssey-850_02	36	21	on	on	RB
homer-odyssey-850_02	36	22	and	and	CC
homer-odyssey-850_02	36	23	she	-PRON-	PRP
homer-odyssey-850_02	36	24	was	be	VBD
homer-odyssey-850_02	36	25	now	now	RB
homer-odyssey-850_02	36	26	in	in	IN
homer-odyssey-850_02	36	27	her	-PRON-	PRP$
homer-odyssey-850_02	36	28	fourth	fourth	JJ
homer-odyssey-850_02	36	29	year	year	NN
homer-odyssey-850_02	36	30	,	,	,
homer-odyssey-850_02	36	31	one	one	CD
homer-odyssey-850_02	36	32	of	of	IN
homer-odyssey-850_02	36	33	her	-PRON-	PRP$
homer-odyssey-850_02	36	34	maids	maid	NNS
homer-odyssey-850_02	36	35	who	who	WP
homer-odyssey-850_02	36	36	knew	know	VBD
homer-odyssey-850_02	36	37	what	what	WP
homer-odyssey-850_02	36	38	she	-PRON-	PRP
homer-odyssey-850_02	36	39	was	be	VBD
homer-odyssey-850_02	36	40	doing	do	VBG
homer-odyssey-850_02	36	41	told	tell	VBD
homer-odyssey-850_02	36	42	us	-PRON-	PRP
homer-odyssey-850_02	36	43	,	,	,
homer-odyssey-850_02	36	44	and	and	CC
homer-odyssey-850_02	36	45	we	-PRON-	PRP
homer-odyssey-850_02	36	46	caught	catch	VBD
homer-odyssey-850_02	36	47	her	-PRON-	PRP
homer-odyssey-850_02	36	48	in	in	IN
homer-odyssey-850_02	36	49	the	the	DT
homer-odyssey-850_02	36	50	act	act	NN
homer-odyssey-850_02	36	51	of	of	IN
homer-odyssey-850_02	36	52	undoing	undo	VBG
homer-odyssey-850_02	36	53	her	-PRON-	PRP$
homer-odyssey-850_02	36	54	work	work	NN
homer-odyssey-850_02	36	55	,	,	,
homer-odyssey-850_02	36	56	so	so	CC
homer-odyssey-850_02	36	57	she	-PRON-	PRP
homer-odyssey-850_02	36	58	had	have	VBD
homer-odyssey-850_02	36	59	to	to	TO
homer-odyssey-850_02	36	60	finish	finish	VB
homer-odyssey-850_02	36	61	it	-PRON-	PRP
homer-odyssey-850_02	36	62	whether	whether	IN
homer-odyssey-850_02	36	63	she	-PRON-	PRP
homer-odyssey-850_02	36	64	would	would	MD
homer-odyssey-850_02	36	65	or	or	CC
homer-odyssey-850_02	36	66	no	no	UH
homer-odyssey-850_02	36	67	.	.	.
homer-odyssey-850_02	37	1	The	the	DT
homer-odyssey-850_02	37	2	suitors	suitor	NNS
homer-odyssey-850_02	37	3	,	,	,
homer-odyssey-850_02	37	4	therefore	therefore	RB
homer-odyssey-850_02	37	5	,	,	,
homer-odyssey-850_02	37	6	make	make	VBP
homer-odyssey-850_02	37	7	you	-PRON-	PRP
homer-odyssey-850_02	37	8	this	this	DT
homer-odyssey-850_02	37	9	answer	answer	NN
homer-odyssey-850_02	37	10	,	,	,
homer-odyssey-850_02	37	11	that	that	IN
homer-odyssey-850_02	37	12	both	both	CC
homer-odyssey-850_02	37	13	you	-PRON-	PRP
homer-odyssey-850_02	37	14	and	and	CC
homer-odyssey-850_02	37	15	the	the	DT
homer-odyssey-850_02	37	16	Achaeans	achaeans	NNPS
homer-odyssey-850_02	37	17	may	may	MD
homer-odyssey-850_02	37	18	understand-'Send	understand-'send	VB
homer-odyssey-850_02	37	19	your	-PRON-	PRP$
homer-odyssey-850_02	37	20	mother	mother	NN
homer-odyssey-850_02	37	21	away	away	RB
homer-odyssey-850_02	37	22	,	,	,
homer-odyssey-850_02	37	23	and	and	CC
homer-odyssey-850_02	37	24	bid	bid	VB
homer-odyssey-850_02	37	25	her	-PRON-	PRP$
homer-odyssey-850_02	37	26	marry	marry	NN
homer-odyssey-850_02	37	27	the	the	DT
homer-odyssey-850_02	37	28	man	man	NN
homer-odyssey-850_02	37	29	of	of	IN
homer-odyssey-850_02	37	30	her	-PRON-	PRP$
homer-odyssey-850_02	37	31	own	own	JJ
homer-odyssey-850_02	37	32	and	and	CC
homer-odyssey-850_02	37	33	of	of	IN
homer-odyssey-850_02	37	34	her	-PRON-	PRP$
homer-odyssey-850_02	37	35	father	father	NN
homer-odyssey-850_02	37	36	's	's	POS
homer-odyssey-850_02	37	37	choice	choice	NN
homer-odyssey-850_02	37	38	'	'	''
homer-odyssey-850_02	37	39	;	;	:
homer-odyssey-850_02	37	40	for	for	IN
homer-odyssey-850_02	37	41	I	-PRON-	PRP
homer-odyssey-850_02	37	42	do	do	VBP
homer-odyssey-850_02	37	43	not	not	RB
homer-odyssey-850_02	37	44	know	know	VB
homer-odyssey-850_02	37	45	what	what	WP
homer-odyssey-850_02	37	46	will	will	MD
homer-odyssey-850_02	37	47	happen	happen	VB
homer-odyssey-850_02	37	48	if	if	IN
homer-odyssey-850_02	37	49	she	-PRON-	PRP
homer-odyssey-850_02	37	50	goes	go	VBZ
homer-odyssey-850_02	37	51	on	on	IN
homer-odyssey-850_02	37	52	plaguing	plague	VBG
homer-odyssey-850_02	37	53	us	-PRON-	PRP
homer-odyssey-850_02	37	54	much	much	RB
homer-odyssey-850_02	37	55	longer	longer	RBR
homer-odyssey-850_02	37	56	with	with	IN
homer-odyssey-850_02	37	57	the	the	DT
homer-odyssey-850_02	37	58	airs	air	NNS
homer-odyssey-850_02	37	59	she	-PRON-	PRP
homer-odyssey-850_02	37	60	gives	give	VBZ
homer-odyssey-850_02	37	61	herself	-PRON-	PRP
homer-odyssey-850_02	37	62	on	on	IN
homer-odyssey-850_02	37	63	the	the	DT
homer-odyssey-850_02	37	64	score	score	NN
homer-odyssey-850_02	37	65	of	of	IN
homer-odyssey-850_02	37	66	the	the	DT
homer-odyssey-850_02	37	67	accomplishments	accomplishment	NNS
homer-odyssey-850_02	37	68	Minerva	minerva	NNP
homer-odyssey-850_02	37	69	has	have	VBZ
homer-odyssey-850_02	37	70	taught	teach	VBN
homer-odyssey-850_02	37	71	her	-PRON-	PRP
homer-odyssey-850_02	37	72	,	,	,
homer-odyssey-850_02	37	73	and	and	CC
homer-odyssey-850_02	37	74	because	because	IN
homer-odyssey-850_02	37	75	she	-PRON-	PRP
homer-odyssey-850_02	37	76	is	be	VBZ
homer-odyssey-850_02	37	77	so	so	RB
homer-odyssey-850_02	37	78	clever	clever	JJ
homer-odyssey-850_02	37	79	.	.	.
homer-odyssey-850_02	38	1	We	-PRON-	PRP
homer-odyssey-850_02	38	2	never	never	RB
homer-odyssey-850_02	38	3	yet	yet	RB
homer-odyssey-850_02	38	4	heard	hear	VBN
homer-odyssey-850_02	38	5	of	of	IN
homer-odyssey-850_02	38	6	such	such	PDT
homer-odyssey-850_02	38	7	a	a	DT
homer-odyssey-850_02	38	8	woman	woman	NN
homer-odyssey-850_02	38	9	;	;	:
homer-odyssey-850_02	38	10	we	-PRON-	PRP
homer-odyssey-850_02	38	11	know	know	VBP
homer-odyssey-850_02	38	12	all	all	RB
homer-odyssey-850_02	38	13	about	about	IN
homer-odyssey-850_02	38	14	Tyro	tyro	NNP
homer-odyssey-850_02	38	15	,	,	,
homer-odyssey-850_02	38	16	Alcmena	alcmena	NNP
homer-odyssey-850_02	38	17	,	,	,
homer-odyssey-850_02	38	18	Mycene	mycene	NNP
homer-odyssey-850_02	38	19	,	,	,
homer-odyssey-850_02	38	20	and	and	CC
homer-odyssey-850_02	38	21	the	the	DT
homer-odyssey-850_02	38	22	famous	famous	JJ
homer-odyssey-850_02	38	23	women	woman	NNS
homer-odyssey-850_02	38	24	of	of	IN
homer-odyssey-850_02	38	25	old	old	JJ
homer-odyssey-850_02	38	26	,	,	,
homer-odyssey-850_02	38	27	but	but	CC
homer-odyssey-850_02	38	28	they	-PRON-	PRP
homer-odyssey-850_02	38	29	were	be	VBD
homer-odyssey-850_02	38	30	nothing	nothing	NN
homer-odyssey-850_02	38	31	to	to	IN
homer-odyssey-850_02	38	32	your	-PRON-	PRP$
homer-odyssey-850_02	38	33	mother	mother	NN
homer-odyssey-850_02	38	34	any	any	DT
homer-odyssey-850_02	38	35	one	one	CD
homer-odyssey-850_02	38	36	of	of	IN
homer-odyssey-850_02	38	37	them	-PRON-	PRP
homer-odyssey-850_02	38	38	.	.	.
homer-odyssey-850_02	39	1	It	-PRON-	PRP
homer-odyssey-850_02	39	2	was	be	VBD
homer-odyssey-850_02	39	3	not	not	RB
homer-odyssey-850_02	39	4	fair	fair	JJ
homer-odyssey-850_02	39	5	of	of	IN
homer-odyssey-850_02	39	6	her	-PRON-	PRP
homer-odyssey-850_02	39	7	to	to	TO
homer-odyssey-850_02	39	8	treat	treat	VB
homer-odyssey-850_02	39	9	us	-PRON-	PRP
homer-odyssey-850_02	39	10	in	in	IN
homer-odyssey-850_02	39	11	that	that	DT
homer-odyssey-850_02	39	12	way	way	NN
homer-odyssey-850_02	39	13	,	,	,
homer-odyssey-850_02	39	14	and	and	CC
homer-odyssey-850_02	39	15	as	as	RB
homer-odyssey-850_02	39	16	long	long	RB
homer-odyssey-850_02	39	17	as	as	IN
homer-odyssey-850_02	39	18	she	-PRON-	PRP
homer-odyssey-850_02	39	19	continues	continue	VBZ
homer-odyssey-850_02	39	20	in	in	IN
homer-odyssey-850_02	39	21	the	the	DT
homer-odyssey-850_02	39	22	mind	mind	NN
homer-odyssey-850_02	39	23	with	with	IN
homer-odyssey-850_02	39	24	which	which	WDT
homer-odyssey-850_02	39	25	heaven	heaven	NNP
homer-odyssey-850_02	39	26	has	have	VBZ
homer-odyssey-850_02	39	27	now	now	RB
homer-odyssey-850_02	39	28	endowed	endow	VBN
homer-odyssey-850_02	39	29	her	-PRON-	PRP
homer-odyssey-850_02	39	30	,	,	,
homer-odyssey-850_02	39	31	so	so	RB
homer-odyssey-850_02	39	32	long	long	RB
homer-odyssey-850_02	39	33	shall	shall	MD
homer-odyssey-850_02	39	34	we	-PRON-	PRP
homer-odyssey-850_02	39	35	go	go	VB
homer-odyssey-850_02	39	36	on	on	IN
homer-odyssey-850_02	39	37	eating	eat	VBG
homer-odyssey-850_02	39	38	up	up	RP
homer-odyssey-850_02	39	39	your	-PRON-	PRP$
homer-odyssey-850_02	39	40	estate	estate	NN
homer-odyssey-850_02	39	41	;	;	:
homer-odyssey-850_02	39	42	and	and	CC
homer-odyssey-850_02	39	43	I	-PRON-	PRP
homer-odyssey-850_02	39	44	do	do	VBP
homer-odyssey-850_02	39	45	not	not	RB
homer-odyssey-850_02	39	46	see	see	VB
homer-odyssey-850_02	39	47	why	why	WRB
homer-odyssey-850_02	39	48	she	-PRON-	PRP
homer-odyssey-850_02	39	49	should	should	MD
homer-odyssey-850_02	39	50	change	change	VB
homer-odyssey-850_02	39	51	,	,	,
homer-odyssey-850_02	39	52	for	for	IN
homer-odyssey-850_02	39	53	she	-PRON-	PRP
homer-odyssey-850_02	39	54	gets	get	VBZ
homer-odyssey-850_02	39	55	all	all	PDT
homer-odyssey-850_02	39	56	the	the	DT
homer-odyssey-850_02	39	57	honour	honour	NN
homer-odyssey-850_02	39	58	and	and	CC
homer-odyssey-850_02	39	59	glory	glory	NN
homer-odyssey-850_02	39	60	,	,	,
homer-odyssey-850_02	39	61	and	and	CC
homer-odyssey-850_02	39	62	it	-PRON-	PRP
homer-odyssey-850_02	39	63	is	be	VBZ
homer-odyssey-850_02	39	64	you	-PRON-	PRP
homer-odyssey-850_02	39	65	who	who	WP
homer-odyssey-850_02	39	66	pay	pay	VBP
homer-odyssey-850_02	39	67	for	for	IN
homer-odyssey-850_02	39	68	it	-PRON-	PRP
homer-odyssey-850_02	39	69	,	,	,
homer-odyssey-850_02	39	70	not	not	RB
homer-odyssey-850_02	39	71	she	-PRON-	PRP
homer-odyssey-850_02	39	72	.	.	.
homer-odyssey-850_02	40	1	Understand	understand	VB
homer-odyssey-850_02	40	2	,	,	,
homer-odyssey-850_02	40	3	then	then	RB
homer-odyssey-850_02	40	4	,	,	,
homer-odyssey-850_02	40	5	that	that	IN
homer-odyssey-850_02	40	6	we	-PRON-	PRP
homer-odyssey-850_02	40	7	will	will	MD
homer-odyssey-850_02	40	8	not	not	RB
homer-odyssey-850_02	40	9	go	go	VB
homer-odyssey-850_02	40	10	back	back	RB
homer-odyssey-850_02	40	11	to	to	IN
homer-odyssey-850_02	40	12	our	-PRON-	PRP$
homer-odyssey-850_02	40	13	lands	land	NNS
homer-odyssey-850_02	40	14	,	,	,
homer-odyssey-850_02	40	15	neither	neither	CC
homer-odyssey-850_02	40	16	here	here	RB
homer-odyssey-850_02	40	17	nor	nor	CC
homer-odyssey-850_02	40	18	elsewhere	elsewhere	RB
homer-odyssey-850_02	40	19	,	,	,
homer-odyssey-850_02	40	20	till	till	IN
homer-odyssey-850_02	40	21	she	-PRON-	PRP
homer-odyssey-850_02	40	22	has	have	VBZ
homer-odyssey-850_02	40	23	made	make	VBN
homer-odyssey-850_02	40	24	her	-PRON-	PRP$
homer-odyssey-850_02	40	25	choice	choice	NN
homer-odyssey-850_02	40	26	and	and	CC
homer-odyssey-850_02	40	27	married	marry	VBD
homer-odyssey-850_02	40	28	some	some	DT
homer-odyssey-850_02	40	29	one	one	CD
homer-odyssey-850_02	40	30	or	or	CC
homer-odyssey-850_02	40	31	other	other	JJ
homer-odyssey-850_02	40	32	of	of	IN
homer-odyssey-850_02	40	33	us	-PRON-	PRP
homer-odyssey-850_02	40	34	.	.	.
homer-odyssey-850_02	40	35	"	"	''
homer-odyssey-850_02	41	1	Telemachus	telemachus	NNP
homer-odyssey-850_02	41	2	answered	answer	VBD
homer-odyssey-850_02	41	3	,	,	,
homer-odyssey-850_02	41	4	"	"	``
homer-odyssey-850_02	41	5	Antinous	antinous	JJ
homer-odyssey-850_02	41	6	,	,	,
homer-odyssey-850_02	41	7	how	how	WRB
homer-odyssey-850_02	41	8	can	can	MD
homer-odyssey-850_02	41	9	I	-PRON-	PRP
homer-odyssey-850_02	41	10	drive	drive	VB
homer-odyssey-850_02	41	11	the	the	DT
homer-odyssey-850_02	41	12	mother	mother	NN
homer-odyssey-850_02	41	13	who	who	WP
homer-odyssey-850_02	41	14	bore	bear	VBD
homer-odyssey-850_02	41	15	me	-PRON-	PRP
homer-odyssey-850_02	41	16	from	from	IN
homer-odyssey-850_02	41	17	my	-PRON-	PRP$
homer-odyssey-850_02	41	18	father	father	NN
homer-odyssey-850_02	41	19	's	's	POS
homer-odyssey-850_02	41	20	house	house	NN
homer-odyssey-850_02	41	21	?	?	.
homer-odyssey-850_02	42	1	My	-PRON-	PRP$
homer-odyssey-850_02	42	2	father	father	NN
homer-odyssey-850_02	42	3	is	be	VBZ
homer-odyssey-850_02	42	4	abroad	abroad	RB
homer-odyssey-850_02	42	5	and	and	CC
homer-odyssey-850_02	42	6	we	-PRON-	PRP
homer-odyssey-850_02	42	7	do	do	VBP
homer-odyssey-850_02	42	8	not	not	RB
homer-odyssey-850_02	42	9	know	know	VB
homer-odyssey-850_02	42	10	whether	whether	IN
homer-odyssey-850_02	42	11	he	-PRON-	PRP
homer-odyssey-850_02	42	12	is	be	VBZ
homer-odyssey-850_02	42	13	alive	alive	JJ
homer-odyssey-850_02	42	14	or	or	CC
homer-odyssey-850_02	42	15	dead	dead	JJ
homer-odyssey-850_02	42	16	.	.	.
homer-odyssey-850_02	43	1	It	-PRON-	PRP
homer-odyssey-850_02	43	2	will	will	MD
homer-odyssey-850_02	43	3	be	be	VB
homer-odyssey-850_02	43	4	hard	hard	JJ
homer-odyssey-850_02	43	5	on	on	IN
homer-odyssey-850_02	43	6	me	-PRON-	PRP
homer-odyssey-850_02	43	7	if	if	IN
homer-odyssey-850_02	43	8	I	-PRON-	PRP
homer-odyssey-850_02	43	9	have	have	VBP
homer-odyssey-850_02	43	10	to	to	TO
homer-odyssey-850_02	43	11	pay	pay	VB
homer-odyssey-850_02	43	12	Icarius	icarius	NNP
homer-odyssey-850_02	43	13	the	the	DT
homer-odyssey-850_02	43	14	large	large	JJ
homer-odyssey-850_02	43	15	sum	sum	NN
homer-odyssey-850_02	43	16	which	which	WDT
homer-odyssey-850_02	43	17	I	-PRON-	PRP
homer-odyssey-850_02	43	18	must	must	MD
homer-odyssey-850_02	43	19	give	give	VB
homer-odyssey-850_02	43	20	him	-PRON-	PRP
homer-odyssey-850_02	43	21	if	if	IN
homer-odyssey-850_02	43	22	I	-PRON-	PRP
homer-odyssey-850_02	43	23	insist	insist	VBP
homer-odyssey-850_02	43	24	on	on	IN
homer-odyssey-850_02	43	25	sending	send	VBG
homer-odyssey-850_02	43	26	his	-PRON-	PRP$
homer-odyssey-850_02	43	27	daughter	daughter	NN
homer-odyssey-850_02	43	28	back	back	RB
homer-odyssey-850_02	43	29	to	to	IN
homer-odyssey-850_02	43	30	him	-PRON-	PRP
homer-odyssey-850_02	43	31	.	.	.
homer-odyssey-850_02	44	1	Not	not	RB
homer-odyssey-850_02	44	2	only	only	RB
homer-odyssey-850_02	44	3	will	will	MD
homer-odyssey-850_02	44	4	he	-PRON-	PRP
homer-odyssey-850_02	44	5	deal	deal	VB
homer-odyssey-850_02	44	6	rigorously	rigorously	RB
homer-odyssey-850_02	44	7	with	with	IN
homer-odyssey-850_02	44	8	me	-PRON-	PRP
homer-odyssey-850_02	44	9	,	,	,
homer-odyssey-850_02	44	10	but	but	CC
homer-odyssey-850_02	44	11	heaven	heaven	NNP
homer-odyssey-850_02	44	12	will	will	MD
homer-odyssey-850_02	44	13	also	also	RB
homer-odyssey-850_02	44	14	punish	punish	VB
homer-odyssey-850_02	44	15	me	-PRON-	PRP
homer-odyssey-850_02	44	16	;	;	:
homer-odyssey-850_02	44	17	for	for	IN
homer-odyssey-850_02	44	18	my	-PRON-	PRP$
homer-odyssey-850_02	44	19	mother	mother	NN
homer-odyssey-850_02	44	20	when	when	WRB
homer-odyssey-850_02	44	21	she	-PRON-	PRP
homer-odyssey-850_02	44	22	leaves	leave	VBZ
homer-odyssey-850_02	44	23	the	the	DT
homer-odyssey-850_02	44	24	house	house	NN
homer-odyssey-850_02	44	25	will	will	MD
homer-odyssey-850_02	44	26	call	call	VB
homer-odyssey-850_02	44	27	on	on	IN
homer-odyssey-850_02	44	28	the	the	DT
homer-odyssey-850_02	44	29	Erinyes	erinye	NNS
homer-odyssey-850_02	44	30	to	to	TO
homer-odyssey-850_02	44	31	avenge	avenge	VB
homer-odyssey-850_02	44	32	her	-PRON-	PRP
homer-odyssey-850_02	44	33	;	;	:
homer-odyssey-850_02	44	34	besides	besides	RB
homer-odyssey-850_02	44	35	,	,	,
homer-odyssey-850_02	44	36	it	-PRON-	PRP
homer-odyssey-850_02	44	37	would	would	MD
homer-odyssey-850_02	44	38	not	not	RB
homer-odyssey-850_02	44	39	be	be	VB
homer-odyssey-850_02	44	40	a	a	DT
homer-odyssey-850_02	44	41	creditable	creditable	JJ
homer-odyssey-850_02	44	42	thing	thing	NN
homer-odyssey-850_02	44	43	to	to	TO
homer-odyssey-850_02	44	44	do	do	VB
homer-odyssey-850_02	44	45	,	,	,
homer-odyssey-850_02	44	46	and	and	CC
homer-odyssey-850_02	44	47	I	-PRON-	PRP
homer-odyssey-850_02	44	48	will	will	MD
homer-odyssey-850_02	44	49	have	have	VB
homer-odyssey-850_02	44	50	nothing	nothing	NN
homer-odyssey-850_02	44	51	to	to	TO
homer-odyssey-850_02	44	52	say	say	VB
homer-odyssey-850_02	44	53	to	to	IN
homer-odyssey-850_02	44	54	it	-PRON-	PRP
homer-odyssey-850_02	44	55	.	.	.
homer-odyssey-850_02	45	1	If	if	IN
homer-odyssey-850_02	45	2	you	-PRON-	PRP
homer-odyssey-850_02	45	3	choose	choose	VBP
homer-odyssey-850_02	45	4	to	to	TO
homer-odyssey-850_02	45	5	take	take	VB
homer-odyssey-850_02	45	6	offence	offence	NN
homer-odyssey-850_02	45	7	at	at	IN
homer-odyssey-850_02	45	8	this	this	DT
homer-odyssey-850_02	45	9	,	,	,
homer-odyssey-850_02	45	10	leave	leave	VB
homer-odyssey-850_02	45	11	the	the	DT
homer-odyssey-850_02	45	12	house	house	NN
homer-odyssey-850_02	45	13	and	and	CC
homer-odyssey-850_02	45	14	feast	feast	NN
homer-odyssey-850_02	45	15	elsewhere	elsewhere	RB
homer-odyssey-850_02	45	16	at	at	IN
homer-odyssey-850_02	45	17	one	one	CD
homer-odyssey-850_02	45	18	another	another	DT
homer-odyssey-850_02	45	19	's	's	POS
homer-odyssey-850_02	45	20	houses	house	NNS
homer-odyssey-850_02	45	21	at	at	IN
homer-odyssey-850_02	45	22	your	-PRON-	PRP$
homer-odyssey-850_02	45	23	own	own	JJ
homer-odyssey-850_02	45	24	cost	cost	NN
homer-odyssey-850_02	45	25	turn	turn	NN
homer-odyssey-850_02	45	26	and	and	CC
homer-odyssey-850_02	45	27	turn	turn	VB
homer-odyssey-850_02	45	28	about	about	IN
homer-odyssey-850_02	45	29	.	.	.
homer-odyssey-850_02	46	1	If	if	IN
homer-odyssey-850_02	46	2	,	,	,
homer-odyssey-850_02	46	3	on	on	IN
homer-odyssey-850_02	46	4	the	the	DT
homer-odyssey-850_02	46	5	other	other	JJ
homer-odyssey-850_02	46	6	hand	hand	NN
homer-odyssey-850_02	46	7	,	,	,
homer-odyssey-850_02	46	8	you	-PRON-	PRP
homer-odyssey-850_02	46	9	elect	elect	VBP
homer-odyssey-850_02	46	10	to	to	TO
homer-odyssey-850_02	46	11	persist	persist	VB
homer-odyssey-850_02	46	12	in	in	IN
homer-odyssey-850_02	46	13	spunging	spung	VBG
homer-odyssey-850_02	46	14	upon	upon	IN
homer-odyssey-850_02	46	15	one	one	CD
homer-odyssey-850_02	46	16	man	man	NN
homer-odyssey-850_02	46	17	,	,	,
homer-odyssey-850_02	46	18	heaven	heaven	NNP
homer-odyssey-850_02	46	19	help	help	VB
homer-odyssey-850_02	46	20	me	-PRON-	PRP
homer-odyssey-850_02	46	21	,	,	,
homer-odyssey-850_02	46	22	but	but	CC
homer-odyssey-850_02	46	23	Jove	jove	NNP
homer-odyssey-850_02	46	24	shall	shall	MD
homer-odyssey-850_02	46	25	reckon	reckon	VB
homer-odyssey-850_02	46	26	with	with	IN
homer-odyssey-850_02	46	27	you	-PRON-	PRP
homer-odyssey-850_02	46	28	in	in	IN
homer-odyssey-850_02	46	29	full	full	JJ
homer-odyssey-850_02	46	30	,	,	,
homer-odyssey-850_02	46	31	and	and	CC
homer-odyssey-850_02	46	32	when	when	WRB
homer-odyssey-850_02	46	33	you	-PRON-	PRP
homer-odyssey-850_02	46	34	fall	fall	VBP
homer-odyssey-850_02	46	35	in	in	IN
homer-odyssey-850_02	46	36	my	-PRON-	PRP$
homer-odyssey-850_02	46	37	father	father	NN
homer-odyssey-850_02	46	38	's	's	POS
homer-odyssey-850_02	46	39	house	house	NN
homer-odyssey-850_02	46	40	there	there	EX
homer-odyssey-850_02	46	41	shall	shall	MD
homer-odyssey-850_02	46	42	be	be	VB
homer-odyssey-850_02	46	43	no	no	DT
homer-odyssey-850_02	46	44	man	man	NN
homer-odyssey-850_02	46	45	to	to	TO
homer-odyssey-850_02	46	46	avenge	avenge	VB
homer-odyssey-850_02	46	47	you	-PRON-	PRP
homer-odyssey-850_02	46	48	.	.	.
homer-odyssey-850_02	46	49	"	"	''
homer-odyssey-850_02	47	1	As	as	IN
homer-odyssey-850_02	47	2	he	-PRON-	PRP
homer-odyssey-850_02	47	3	spoke	speak	VBD
homer-odyssey-850_02	47	4	Jove	jove	NNP
homer-odyssey-850_02	47	5	sent	send	VBD
homer-odyssey-850_02	47	6	two	two	CD
homer-odyssey-850_02	47	7	eagles	eagle	NNS
homer-odyssey-850_02	47	8	from	from	IN
homer-odyssey-850_02	47	9	the	the	DT
homer-odyssey-850_02	47	10	top	top	NN
homer-odyssey-850_02	47	11	of	of	IN
homer-odyssey-850_02	47	12	the	the	DT
homer-odyssey-850_02	47	13	mountain	mountain	NN
homer-odyssey-850_02	47	14	,	,	,
homer-odyssey-850_02	47	15	and	and	CC
homer-odyssey-850_02	47	16	they	-PRON-	PRP
homer-odyssey-850_02	47	17	flew	fly	VBD
homer-odyssey-850_02	47	18	on	on	RB
homer-odyssey-850_02	47	19	and	and	CC
homer-odyssey-850_02	47	20	on	on	RB
homer-odyssey-850_02	47	21	with	with	IN
homer-odyssey-850_02	47	22	the	the	DT
homer-odyssey-850_02	47	23	wind	wind	NN
homer-odyssey-850_02	47	24	,	,	,
homer-odyssey-850_02	47	25	sailing	sailing	NN
homer-odyssey-850_02	47	26	side	side	NN
homer-odyssey-850_02	47	27	by	by	IN
homer-odyssey-850_02	47	28	side	side	NN
homer-odyssey-850_02	47	29	in	in	IN
homer-odyssey-850_02	47	30	their	-PRON-	PRP$
homer-odyssey-850_02	47	31	own	own	JJ
homer-odyssey-850_02	47	32	lordly	lordly	JJ
homer-odyssey-850_02	47	33	flight	flight	NN
homer-odyssey-850_02	47	34	.	.	.
homer-odyssey-850_02	48	1	When	when	WRB
homer-odyssey-850_02	48	2	they	-PRON-	PRP
homer-odyssey-850_02	48	3	were	be	VBD
homer-odyssey-850_02	48	4	right	right	RB
homer-odyssey-850_02	48	5	over	over	IN
homer-odyssey-850_02	48	6	the	the	DT
homer-odyssey-850_02	48	7	middle	middle	NN
homer-odyssey-850_02	48	8	of	of	IN
homer-odyssey-850_02	48	9	the	the	DT
homer-odyssey-850_02	48	10	assembly	assembly	NN
homer-odyssey-850_02	48	11	they	-PRON-	PRP
homer-odyssey-850_02	48	12	wheeled	wheel	VBD
homer-odyssey-850_02	48	13	and	and	CC
homer-odyssey-850_02	48	14	circled	circle	VBD
homer-odyssey-850_02	48	15	about	about	IN
homer-odyssey-850_02	48	16	,	,	,
homer-odyssey-850_02	48	17	beating	beat	VBG
homer-odyssey-850_02	48	18	the	the	DT
homer-odyssey-850_02	48	19	air	air	NN
homer-odyssey-850_02	48	20	with	with	IN
homer-odyssey-850_02	48	21	their	-PRON-	PRP$
homer-odyssey-850_02	48	22	wings	wing	NNS
homer-odyssey-850_02	48	23	and	and	CC
homer-odyssey-850_02	48	24	glaring	glare	VBG
homer-odyssey-850_02	48	25	death	death	NN
homer-odyssey-850_02	48	26	into	into	IN
homer-odyssey-850_02	48	27	the	the	DT
homer-odyssey-850_02	48	28	eyes	eye	NNS
homer-odyssey-850_02	48	29	of	of	IN
homer-odyssey-850_02	48	30	them	-PRON-	PRP
homer-odyssey-850_02	48	31	that	that	WDT
homer-odyssey-850_02	48	32	were	be	VBD
homer-odyssey-850_02	48	33	below	below	RB
homer-odyssey-850_02	48	34	;	;	:
homer-odyssey-850_02	48	35	then	then	RB
homer-odyssey-850_02	48	36	,	,	,
homer-odyssey-850_02	48	37	fighting	fight	VBG
homer-odyssey-850_02	48	38	fiercely	fiercely	RB
homer-odyssey-850_02	48	39	and	and	CC
homer-odyssey-850_02	48	40	tearing	tear	VBG
homer-odyssey-850_02	48	41	at	at	IN
homer-odyssey-850_02	48	42	one	one	CD
homer-odyssey-850_02	48	43	another	another	DT
homer-odyssey-850_02	48	44	,	,	,
homer-odyssey-850_02	48	45	they	-PRON-	PRP
homer-odyssey-850_02	48	46	flew	fly	VBD
homer-odyssey-850_02	48	47	off	off	RB
homer-odyssey-850_02	48	48	towards	towards	IN
homer-odyssey-850_02	48	49	the	the	DT
homer-odyssey-850_02	48	50	right	right	NN
homer-odyssey-850_02	48	51	over	over	IN
homer-odyssey-850_02	48	52	the	the	DT
homer-odyssey-850_02	48	53	town	town	NN
homer-odyssey-850_02	48	54	.	.	.
homer-odyssey-850_02	49	1	The	the	DT
homer-odyssey-850_02	49	2	people	people	NNS
homer-odyssey-850_02	49	3	wondered	wonder	VBD
homer-odyssey-850_02	49	4	as	as	IN
homer-odyssey-850_02	49	5	they	-PRON-	PRP
homer-odyssey-850_02	49	6	saw	see	VBD
homer-odyssey-850_02	49	7	them	-PRON-	PRP
homer-odyssey-850_02	49	8	,	,	,
homer-odyssey-850_02	49	9	and	and	CC
homer-odyssey-850_02	49	10	asked	ask	VBD
homer-odyssey-850_02	49	11	each	each	DT
homer-odyssey-850_02	49	12	other	other	JJ
homer-odyssey-850_02	49	13	what	what	WP
homer-odyssey-850_02	49	14	all	all	PDT
homer-odyssey-850_02	49	15	this	this	DT
homer-odyssey-850_02	49	16	might	may	MD
homer-odyssey-850_02	49	17	be	be	VB
homer-odyssey-850_02	49	18	;	;	:
homer-odyssey-850_02	49	19	whereon	whereon	JJ
homer-odyssey-850_02	49	20	Halitherses	halithers	NNS
homer-odyssey-850_02	49	21	,	,	,
homer-odyssey-850_02	49	22	who	who	WP
homer-odyssey-850_02	49	23	was	be	VBD
homer-odyssey-850_02	49	24	the	the	DT
homer-odyssey-850_02	49	25	best	good	JJS
homer-odyssey-850_02	49	26	prophet	prophet	NN
homer-odyssey-850_02	49	27	and	and	CC
homer-odyssey-850_02	49	28	reader	reader	NN
homer-odyssey-850_02	49	29	of	of	IN
homer-odyssey-850_02	49	30	omens	omen	NNS
homer-odyssey-850_02	49	31	among	among	IN
homer-odyssey-850_02	49	32	them	-PRON-	PRP
homer-odyssey-850_02	49	33	,	,	,
homer-odyssey-850_02	49	34	spoke	speak	VBD
homer-odyssey-850_02	49	35	to	to	IN
homer-odyssey-850_02	49	36	them	-PRON-	PRP
homer-odyssey-850_02	49	37	plainly	plainly	RB
homer-odyssey-850_02	49	38	and	and	CC
homer-odyssey-850_02	49	39	in	in	IN
homer-odyssey-850_02	49	40	all	all	DT
homer-odyssey-850_02	49	41	honesty	honesty	NN
homer-odyssey-850_02	49	42	,	,	,
homer-odyssey-850_02	49	43	saying	say	VBG
homer-odyssey-850_02	49	44	:	:	:
homer-odyssey-850_02	49	45	"	"	``
homer-odyssey-850_02	49	46	Hear	hear	VB
homer-odyssey-850_02	49	47	me	-PRON-	PRP
homer-odyssey-850_02	49	48	,	,	,
homer-odyssey-850_02	49	49	men	man	NNS
homer-odyssey-850_02	49	50	of	of	IN
homer-odyssey-850_02	49	51	Ithaca	ithaca	NNP
homer-odyssey-850_02	49	52	,	,	,
homer-odyssey-850_02	49	53	and	and	CC
homer-odyssey-850_02	49	54	I	-PRON-	PRP
homer-odyssey-850_02	49	55	speak	speak	VBP
homer-odyssey-850_02	49	56	more	more	RBR
homer-odyssey-850_02	49	57	particularly	particularly	RB
homer-odyssey-850_02	49	58	to	to	IN
homer-odyssey-850_02	49	59	the	the	DT
homer-odyssey-850_02	49	60	suitors	suitor	NNS
homer-odyssey-850_02	49	61	,	,	,
homer-odyssey-850_02	49	62	for	for	IN
homer-odyssey-850_02	49	63	I	-PRON-	PRP
homer-odyssey-850_02	49	64	see	see	VBP
homer-odyssey-850_02	49	65	mischief	mischief	NN
homer-odyssey-850_02	49	66	brewing	brew	VBG
homer-odyssey-850_02	49	67	for	for	IN
homer-odyssey-850_02	49	68	them	-PRON-	PRP
homer-odyssey-850_02	49	69	.	.	.
homer-odyssey-850_02	50	1	Ulysses	ulyss	NNS
homer-odyssey-850_02	50	2	is	be	VBZ
homer-odyssey-850_02	50	3	not	not	RB
homer-odyssey-850_02	50	4	going	go	VBG
homer-odyssey-850_02	50	5	to	to	TO
homer-odyssey-850_02	50	6	be	be	VB
homer-odyssey-850_02	50	7	away	away	RB
homer-odyssey-850_02	50	8	much	much	RB
homer-odyssey-850_02	50	9	longer	long	JJR
homer-odyssey-850_02	50	10	;	;	:
homer-odyssey-850_02	50	11	indeed	indeed	RB
homer-odyssey-850_02	50	12	he	-PRON-	PRP
homer-odyssey-850_02	50	13	is	be	VBZ
homer-odyssey-850_02	50	14	close	close	JJ
homer-odyssey-850_02	50	15	at	at	IN
homer-odyssey-850_02	50	16	hand	hand	NN
homer-odyssey-850_02	50	17	to	to	TO
homer-odyssey-850_02	50	18	deal	deal	VB
homer-odyssey-850_02	50	19	out	out	RP
homer-odyssey-850_02	50	20	death	death	NN
homer-odyssey-850_02	50	21	and	and	CC
homer-odyssey-850_02	50	22	destruction	destruction	NN
homer-odyssey-850_02	50	23	,	,	,
homer-odyssey-850_02	50	24	not	not	RB
homer-odyssey-850_02	50	25	on	on	IN
homer-odyssey-850_02	50	26	them	-PRON-	PRP
homer-odyssey-850_02	50	27	alone	alone	JJ
homer-odyssey-850_02	50	28	,	,	,
homer-odyssey-850_02	50	29	but	but	CC
homer-odyssey-850_02	50	30	on	on	IN
homer-odyssey-850_02	50	31	many	many	JJ
homer-odyssey-850_02	50	32	another	another	DT
homer-odyssey-850_02	50	33	of	of	IN
homer-odyssey-850_02	50	34	us	-PRON-	PRP
homer-odyssey-850_02	50	35	who	who	WP
homer-odyssey-850_02	50	36	live	live	VBP
homer-odyssey-850_02	50	37	in	in	IN
homer-odyssey-850_02	50	38	Ithaca	ithaca	NNP
homer-odyssey-850_02	50	39	.	.	.
homer-odyssey-850_02	51	1	Let	let	VB
homer-odyssey-850_02	51	2	us	-PRON-	PRP
homer-odyssey-850_02	51	3	then	then	RB
homer-odyssey-850_02	51	4	be	be	VB
homer-odyssey-850_02	51	5	wise	wise	JJ
homer-odyssey-850_02	51	6	in	in	IN
homer-odyssey-850_02	51	7	time	time	NN
homer-odyssey-850_02	51	8	,	,	,
homer-odyssey-850_02	51	9	and	and	CC
homer-odyssey-850_02	51	10	put	put	VBD
homer-odyssey-850_02	51	11	a	a	DT
homer-odyssey-850_02	51	12	stop	stop	NN
homer-odyssey-850_02	51	13	to	to	IN
homer-odyssey-850_02	51	14	this	this	DT
homer-odyssey-850_02	51	15	wickedness	wickedness	NN
homer-odyssey-850_02	51	16	before	before	IN
homer-odyssey-850_02	51	17	he	-PRON-	PRP
homer-odyssey-850_02	51	18	comes	come	VBZ
homer-odyssey-850_02	51	19	.	.	.
homer-odyssey-850_02	52	1	Let	let	VB
homer-odyssey-850_02	52	2	the	the	DT
homer-odyssey-850_02	52	3	suitors	suitor	NNS
homer-odyssey-850_02	52	4	do	do	VBP
homer-odyssey-850_02	52	5	so	so	RB
homer-odyssey-850_02	52	6	of	of	IN
homer-odyssey-850_02	52	7	their	-PRON-	PRP$
homer-odyssey-850_02	52	8	own	own	JJ
homer-odyssey-850_02	52	9	accord	accord	NN
homer-odyssey-850_02	52	10	;	;	:
homer-odyssey-850_02	52	11	it	-PRON-	PRP
homer-odyssey-850_02	52	12	will	will	MD
homer-odyssey-850_02	52	13	be	be	VB
homer-odyssey-850_02	52	14	better	good	JJR
homer-odyssey-850_02	52	15	for	for	IN
homer-odyssey-850_02	52	16	them	-PRON-	PRP
homer-odyssey-850_02	52	17	,	,	,
homer-odyssey-850_02	52	18	for	for	IN
homer-odyssey-850_02	52	19	I	-PRON-	PRP
homer-odyssey-850_02	52	20	am	be	VBP
homer-odyssey-850_02	52	21	not	not	RB
homer-odyssey-850_02	52	22	prophesying	prophesy	VBG
homer-odyssey-850_02	52	23	without	without	IN
homer-odyssey-850_02	52	24	due	due	JJ
homer-odyssey-850_02	52	25	knowledge	knowledge	NN
homer-odyssey-850_02	52	26	;	;	:
homer-odyssey-850_02	52	27	everything	everything	NN
homer-odyssey-850_02	52	28	has	have	VBZ
homer-odyssey-850_02	52	29	happened	happen	VBN
homer-odyssey-850_02	52	30	to	to	IN
homer-odyssey-850_02	52	31	Ulysses	ulysses	NNPS
homer-odyssey-850_02	52	32	as	as	IN
homer-odyssey-850_02	52	33	I	-PRON-	PRP
homer-odyssey-850_02	52	34	foretold	foretell	VBD
homer-odyssey-850_02	52	35	when	when	WRB
homer-odyssey-850_02	52	36	the	the	DT
homer-odyssey-850_02	52	37	Argives	argives	NNPS
homer-odyssey-850_02	52	38	set	set	VBD
homer-odyssey-850_02	52	39	out	out	RP
homer-odyssey-850_02	52	40	for	for	IN
homer-odyssey-850_02	52	41	Troy	troy	NNP
homer-odyssey-850_02	52	42	,	,	,
homer-odyssey-850_02	52	43	and	and	CC
homer-odyssey-850_02	52	44	he	-PRON-	PRP
homer-odyssey-850_02	52	45	with	with	IN
homer-odyssey-850_02	52	46	them	-PRON-	PRP
homer-odyssey-850_02	52	47	.	.	.
homer-odyssey-850_02	53	1	I	-PRON-	PRP
homer-odyssey-850_02	53	2	said	say	VBD
homer-odyssey-850_02	53	3	that	that	IN
homer-odyssey-850_02	53	4	after	after	IN
homer-odyssey-850_02	53	5	going	go	VBG
homer-odyssey-850_02	53	6	through	through	IN
homer-odyssey-850_02	53	7	much	much	JJ
homer-odyssey-850_02	53	8	hardship	hardship	NN
homer-odyssey-850_02	53	9	and	and	CC
homer-odyssey-850_02	53	10	losing	lose	VBG
homer-odyssey-850_02	53	11	all	all	PDT
homer-odyssey-850_02	53	12	his	-PRON-	PRP$
homer-odyssey-850_02	53	13	men	man	NNS
homer-odyssey-850_02	53	14	he	-PRON-	PRP
homer-odyssey-850_02	53	15	should	should	MD
homer-odyssey-850_02	53	16	come	come	VB
homer-odyssey-850_02	53	17	home	home	RB
homer-odyssey-850_02	53	18	again	again	RB
homer-odyssey-850_02	53	19	in	in	IN
homer-odyssey-850_02	53	20	the	the	DT
homer-odyssey-850_02	53	21	twentieth	twentieth	JJ
homer-odyssey-850_02	53	22	year	year	NN
homer-odyssey-850_02	53	23	and	and	CC
homer-odyssey-850_02	53	24	that	that	IN
homer-odyssey-850_02	53	25	no	no	DT
homer-odyssey-850_02	53	26	one	one	PRP
homer-odyssey-850_02	53	27	would	would	MD
homer-odyssey-850_02	53	28	know	know	VB
homer-odyssey-850_02	53	29	him	-PRON-	PRP
homer-odyssey-850_02	53	30	;	;	:
homer-odyssey-850_02	53	31	and	and	CC
homer-odyssey-850_02	53	32	now	now	RB
homer-odyssey-850_02	53	33	all	all	PDT
homer-odyssey-850_02	53	34	this	this	DT
homer-odyssey-850_02	53	35	is	be	VBZ
homer-odyssey-850_02	53	36	coming	come	VBG
homer-odyssey-850_02	53	37	true	true	JJ
homer-odyssey-850_02	53	38	.	.	.
homer-odyssey-850_02	53	39	"	"	''
homer-odyssey-850_02	54	1	Eurymachus	eurymachus	NNP
homer-odyssey-850_02	54	2	son	son	NN
homer-odyssey-850_02	54	3	of	of	IN
homer-odyssey-850_02	54	4	Polybus	polybus	NNP
homer-odyssey-850_02	54	5	then	then	RB
homer-odyssey-850_02	54	6	said	say	VBD
homer-odyssey-850_02	54	7	,	,	,
homer-odyssey-850_02	54	8	"	"	``
homer-odyssey-850_02	54	9	Go	go	VB
homer-odyssey-850_02	54	10	home	home	RB
homer-odyssey-850_02	54	11	,	,	,
homer-odyssey-850_02	54	12	old	old	JJ
homer-odyssey-850_02	54	13	man	man	NN
homer-odyssey-850_02	54	14	,	,	,
homer-odyssey-850_02	54	15	and	and	CC
homer-odyssey-850_02	54	16	prophesy	prophesy	VBD
homer-odyssey-850_02	54	17	to	to	IN
homer-odyssey-850_02	54	18	your	-PRON-	PRP$
homer-odyssey-850_02	54	19	own	own	JJ
homer-odyssey-850_02	54	20	children	child	NNS
homer-odyssey-850_02	54	21	,	,	,
homer-odyssey-850_02	54	22	or	or	CC
homer-odyssey-850_02	54	23	it	-PRON-	PRP
homer-odyssey-850_02	54	24	may	may	MD
homer-odyssey-850_02	54	25	be	be	VB
homer-odyssey-850_02	54	26	worse	bad	JJR
homer-odyssey-850_02	54	27	for	for	IN
homer-odyssey-850_02	54	28	them	-PRON-	PRP
homer-odyssey-850_02	54	29	.	.	.
homer-odyssey-850_02	55	1	I	-PRON-	PRP
homer-odyssey-850_02	55	2	can	can	MD
homer-odyssey-850_02	55	3	read	read	VB
homer-odyssey-850_02	55	4	these	these	DT
homer-odyssey-850_02	55	5	omens	omen	NNS
homer-odyssey-850_02	55	6	myself	-PRON-	PRP
homer-odyssey-850_02	55	7	much	much	RB
homer-odyssey-850_02	55	8	better	better	RBR
homer-odyssey-850_02	55	9	than	than	IN
homer-odyssey-850_02	55	10	you	-PRON-	PRP
homer-odyssey-850_02	55	11	can	can	MD
homer-odyssey-850_02	55	12	;	;	:
homer-odyssey-850_02	55	13	birds	bird	NNS
homer-odyssey-850_02	55	14	are	be	VBP
homer-odyssey-850_02	55	15	always	always	RB
homer-odyssey-850_02	55	16	flying	fly	VBG
homer-odyssey-850_02	55	17	about	about	IN
homer-odyssey-850_02	55	18	in	in	IN
homer-odyssey-850_02	55	19	the	the	DT
homer-odyssey-850_02	55	20	sunshine	sunshine	NN
homer-odyssey-850_02	55	21	somewhere	somewhere	RB
homer-odyssey-850_02	55	22	or	or	CC
homer-odyssey-850_02	55	23	other	other	JJ
homer-odyssey-850_02	55	24	,	,	,
homer-odyssey-850_02	55	25	but	but	CC
homer-odyssey-850_02	55	26	they	-PRON-	PRP
homer-odyssey-850_02	55	27	seldom	seldom	RB
homer-odyssey-850_02	55	28	mean	mean	VBP
homer-odyssey-850_02	55	29	anything	anything	NN
homer-odyssey-850_02	55	30	.	.	.
homer-odyssey-850_02	56	1	Ulysses	ulyss	NNS
[...]
homer-odyssey-850_02	118	25	do	do	VB
homer-odyssey-850_02	118	26	.	.	.
homer-odyssey-850_02	119	1	When	when	WRB
homer-odyssey-850_02	119	2	the	the	DT
homer-odyssey-850_02	119	3	sun	sun	NN
homer-odyssey-850_02	119	4	had	have	VBD
homer-odyssey-850_02	119	5	set	set	VBN
homer-odyssey-850_02	119	6	and	and	CC
homer-odyssey-850_02	119	7	darkness	darkness	NN
homer-odyssey-850_02	119	8	was	be	VBD
homer-odyssey-850_02	119	9	over	over	IN
homer-odyssey-850_02	119	10	all	all	PDT
homer-odyssey-850_02	119	11	the	the	DT
homer-odyssey-850_02	119	12	land	land	NN
homer-odyssey-850_02	119	13	,	,	,
homer-odyssey-850_02	119	14	she	-PRON-	PRP
homer-odyssey-850_02	119	15	got	get	VBD
homer-odyssey-850_02	119	16	the	the	DT
homer-odyssey-850_02	119	17	ship	ship	NN
homer-odyssey-850_02	119	18	into	into	IN
homer-odyssey-850_02	119	19	the	the	DT
homer-odyssey-850_02	119	20	water	water	NN
homer-odyssey-850_02	119	21	,	,	,
homer-odyssey-850_02	119	22	put	put	VB
homer-odyssey-850_02	119	23	all	all	PDT
homer-odyssey-850_02	119	24	the	the	DT
homer-odyssey-850_02	119	25	tackle	tackle	NN
homer-odyssey-850_02	119	26	on	on	IN
homer-odyssey-850_02	119	27	board	board	NN
homer-odyssey-850_02	119	28	her	-PRON-	PRP
homer-odyssey-850_02	119	29	that	that	IN
homer-odyssey-850_02	119	30	ships	ship	NNS
homer-odyssey-850_02	119	31	generally	generally	RB
homer-odyssey-850_02	119	32	carry	carry	VBP
homer-odyssey-850_02	119	33	,	,	,
homer-odyssey-850_02	119	34	and	and	CC
homer-odyssey-850_02	119	35	stationed	station	VBD
homer-odyssey-850_02	119	36	her	-PRON-	PRP
homer-odyssey-850_02	119	37	at	at	IN
homer-odyssey-850_02	119	38	the	the	DT
homer-odyssey-850_02	119	39	end	end	NN
homer-odyssey-850_02	119	40	of	of	IN
homer-odyssey-850_02	119	41	the	the	DT
homer-odyssey-850_02	119	42	harbour	harbour	NN
homer-odyssey-850_02	119	43	.	.	.
homer-odyssey-850_02	120	1	Presently	presently	RB
homer-odyssey-850_02	120	2	the	the	DT
homer-odyssey-850_02	120	3	crew	crew	NN
homer-odyssey-850_02	120	4	came	come	VBD
homer-odyssey-850_02	120	5	up	up	RP
homer-odyssey-850_02	120	6	,	,	,
homer-odyssey-850_02	120	7	and	and	CC
homer-odyssey-850_02	120	8	the	the	DT
homer-odyssey-850_02	120	9	goddess	goddess	NN
homer-odyssey-850_02	120	10	spoke	speak	VBD
homer-odyssey-850_02	120	11	encouragingly	encouragingly	RB
homer-odyssey-850_02	120	12	to	to	IN
homer-odyssey-850_02	120	13	each	each	DT
homer-odyssey-850_02	120	14	of	of	IN
homer-odyssey-850_02	120	15	them	-PRON-	PRP
homer-odyssey-850_02	120	16	.	.	.
homer-odyssey-850_02	121	1	Furthermore	furthermore	RB
homer-odyssey-850_02	121	2	she	-PRON-	PRP
homer-odyssey-850_02	121	3	went	go	VBD
homer-odyssey-850_02	121	4	to	to	IN
homer-odyssey-850_02	121	5	the	the	DT
homer-odyssey-850_02	121	6	house	house	NN
homer-odyssey-850_02	121	7	of	of	IN
homer-odyssey-850_02	121	8	Ulysses	ulysses	NNPS
homer-odyssey-850_02	121	9	,	,	,
homer-odyssey-850_02	121	10	and	and	CC
homer-odyssey-850_02	121	11	threw	throw	VBD
homer-odyssey-850_02	121	12	the	the	DT
homer-odyssey-850_02	121	13	suitors	suitor	NNS
homer-odyssey-850_02	121	14	into	into	IN
homer-odyssey-850_02	121	15	a	a	DT
homer-odyssey-850_02	121	16	deep	deep	JJ
homer-odyssey-850_02	121	17	slumber	slumber	NN
homer-odyssey-850_02	121	18	.	.	.
homer-odyssey-850_02	122	1	She	-PRON-	PRP
homer-odyssey-850_02	122	2	caused	cause	VBD
homer-odyssey-850_02	122	3	their	-PRON-	PRP$
homer-odyssey-850_02	122	4	drink	drink	NN
homer-odyssey-850_02	122	5	to	to	TO
homer-odyssey-850_02	122	6	fuddle	fuddle	VB
homer-odyssey-850_02	122	7	them	-PRON-	PRP
homer-odyssey-850_02	122	8	,	,	,
homer-odyssey-850_02	122	9	and	and	CC
homer-odyssey-850_02	122	10	made	make	VBD
homer-odyssey-850_02	122	11	them	-PRON-	PRP
homer-odyssey-850_02	122	12	drop	drop	VB
homer-odyssey-850_02	122	13	their	-PRON-	PRP$
homer-odyssey-850_02	122	14	cups	cup	NNS
homer-odyssey-850_02	122	15	from	from	IN
homer-odyssey-850_02	122	16	their	-PRON-	PRP$
homer-odyssey-850_02	122	17	hands	hand	NNS
homer-odyssey-850_02	122	18	,	,	,
homer-odyssey-850_02	122	19	so	so	IN
homer-odyssey-850_02	122	20	that	that	IN
homer-odyssey-850_02	122	21	instead	instead	RB
homer-odyssey-850_02	122	22	of	of	IN
homer-odyssey-850_02	122	23	sitting	sit	VBG
homer-odyssey-850_02	122	24	over	over	IN
homer-odyssey-850_02	122	25	their	-PRON-	PRP$
homer-odyssey-850_02	122	26	wine	wine	NN
homer-odyssey-850_02	122	27	,	,	,
homer-odyssey-850_02	122	28	they	-PRON-	PRP
homer-odyssey-850_02	122	29	went	go	VBD
homer-odyssey-850_02	122	30	back	back	RB
homer-odyssey-850_02	122	31	into	into	IN
homer-odyssey-850_02	122	32	the	the	DT
homer-odyssey-850_02	122	33	town	town	NN
homer-odyssey-850_02	122	34	to	to	IN
homer-odyssey-850_02	122	35	sleep	sleep	NN
homer-odyssey-850_02	122	36	,	,	,
homer-odyssey-850_02	122	37	with	with	IN
homer-odyssey-850_02	122	38	their	-PRON-	PRP$
homer-odyssey-850_02	122	39	eyes	eye	NNS
homer-odyssey-850_02	122	40	heavy	heavy	JJ
homer-odyssey-850_02	122	41	and	and	CC
homer-odyssey-850_02	122	42	full	full	JJ
homer-odyssey-850_02	122	43	of	of	IN
homer-odyssey-850_02	122	44	drowsiness	drowsiness	NN
homer-odyssey-850_02	122	45	.	.	.
homer-odyssey-850_02	123	1	Then	then	RB
homer-odyssey-850_02	123	2	she	-PRON-	PRP
homer-odyssey-850_02	123	3	took	take	VBD
homer-odyssey-850_02	123	4	the	the	DT
homer-odyssey-850_02	123	5	form	form	NN
homer-odyssey-850_02	123	6	and	and	CC
homer-odyssey-850_02	123	7	voice	voice	NN
homer-odyssey-850_02	123	8	of	of	IN
homer-odyssey-850_02	123	9	Mentor	mentor	NNP
homer-odyssey-850_02	123	10	,	,	,
homer-odyssey-850_02	123	11	and	and	CC
homer-odyssey-850_02	123	12	called	call	VBD
homer-odyssey-850_02	123	13	Telemachus	telemachus	NN
homer-odyssey-850_02	123	14	to	to	TO
homer-odyssey-850_02	123	15	come	come	VB
homer-odyssey-850_02	123	16	outside	outside	RB
homer-odyssey-850_02	123	17	.	.	.
homer-odyssey-850_02	124	1	"	"	``
homer-odyssey-850_02	124	2	Telemachus	telemachus	NN
homer-odyssey-850_02	124	3	,	,	,
homer-odyssey-850_02	124	4	"	"	''
homer-odyssey-850_02	124	5	said	say	VBD
homer-odyssey-850_02	124	6	she	-PRON-	PRP
homer-odyssey-850_02	124	7	,	,	,
homer-odyssey-850_02	124	8	"	"	``
homer-odyssey-850_02	124	9	the	the	DT
homer-odyssey-850_02	124	10	men	man	NNS
homer-odyssey-850_02	124	11	are	be	VBP
homer-odyssey-850_02	124	12	on	on	IN
homer-odyssey-850_02	124	13	board	board	NN
homer-odyssey-850_02	124	14	and	and	CC
homer-odyssey-850_02	124	15	at	at	IN
homer-odyssey-850_02	124	16	their	-PRON-	PRP$
homer-odyssey-850_02	124	17	oars	oar	NNS
homer-odyssey-850_02	124	18	,	,	,
homer-odyssey-850_02	124	19	waiting	wait	VBG
homer-odyssey-850_02	124	20	for	for	IN
homer-odyssey-850_02	124	21	you	-PRON-	PRP
homer-odyssey-850_02	124	22	to	to	TO
homer-odyssey-850_02	124	23	give	give	VB
homer-odyssey-850_02	124	24	your	-PRON-	PRP$
homer-odyssey-850_02	124	25	orders	order	NNS
homer-odyssey-850_02	124	26	,	,	,
homer-odyssey-850_02	124	27	so	so	RB
homer-odyssey-850_02	124	28	make	make	VB
homer-odyssey-850_02	124	29	haste	haste	NN
homer-odyssey-850_02	124	30	and	and	CC
homer-odyssey-850_02	124	31	let	let	VB
homer-odyssey-850_02	124	32	us	-PRON-	PRP
homer-odyssey-850_02	124	33	be	be	VB
homer-odyssey-850_02	124	34	off	off	IN
homer-odyssey-850_02	124	35	.	.	.
homer-odyssey-850_02	124	36	"	"	''
homer-odyssey-850_02	125	1	On	on	IN
homer-odyssey-850_02	125	2	this	this	DT
homer-odyssey-850_02	125	3	she	-PRON-	PRP
homer-odyssey-850_02	125	4	led	lead	VBD
homer-odyssey-850_02	125	5	the	the	DT
homer-odyssey-850_02	125	6	way	way	NN
homer-odyssey-850_02	125	7	,	,	,
homer-odyssey-850_02	125	8	while	while	IN
homer-odyssey-850_02	125	9	Telemachus	telemachus	NNP
homer-odyssey-850_02	125	10	followed	follow	VBD
homer-odyssey-850_02	125	11	in	in	IN
homer-odyssey-850_02	125	12	her	-PRON-	PRP$
homer-odyssey-850_02	125	13	steps	step	NNS
homer-odyssey-850_02	125	14	.	.	.
homer-odyssey-850_02	126	1	When	when	WRB
homer-odyssey-850_02	126	2	they	-PRON-	PRP
homer-odyssey-850_02	126	3	got	get	VBD
homer-odyssey-850_02	126	4	to	to	IN
homer-odyssey-850_02	126	5	the	the	DT
homer-odyssey-850_02	126	6	ship	ship	NN
homer-odyssey-850_02	126	7	they	-PRON-	PRP
homer-odyssey-850_02	126	8	found	find	VBD
homer-odyssey-850_02	126	9	the	the	DT
homer-odyssey-850_02	126	10	crew	crew	NN
homer-odyssey-850_02	126	11	waiting	wait	VBG
homer-odyssey-850_02	126	12	by	by	IN
homer-odyssey-850_02	126	13	the	the	DT
homer-odyssey-850_02	126	14	water	water	NN
homer-odyssey-850_02	126	15	side	side	NN
homer-odyssey-850_02	126	16	,	,	,
homer-odyssey-850_02	126	17	and	and	CC
homer-odyssey-850_02	126	18	Telemachus	telemachus	NNP
homer-odyssey-850_02	126	19	said	say	VBD
homer-odyssey-850_02	126	20	,	,	,
homer-odyssey-850_02	126	21	"	"	``
homer-odyssey-850_02	126	22	Now	now	RB
homer-odyssey-850_02	126	23	my	-PRON-	PRP$
homer-odyssey-850_02	126	24	men	man	NNS
homer-odyssey-850_02	126	25	,	,	,
homer-odyssey-850_02	126	26	help	help	VB
homer-odyssey-850_02	126	27	me	-PRON-	PRP
homer-odyssey-850_02	126	28	to	to	TO
homer-odyssey-850_02	126	29	get	get	VB
homer-odyssey-850_02	126	30	the	the	DT
homer-odyssey-850_02	126	31	stores	store	NNS
homer-odyssey-850_02	126	32	on	on	IN
homer-odyssey-850_02	126	33	board	board	NN
homer-odyssey-850_02	126	34	;	;	:
homer-odyssey-850_02	126	35	they	-PRON-	PRP
homer-odyssey-850_02	126	36	are	be	VBP
homer-odyssey-850_02	126	37	all	all	DT
homer-odyssey-850_02	126	38	put	put	VBN
homer-odyssey-850_02	126	39	together	together	RB
homer-odyssey-850_02	126	40	in	in	IN
homer-odyssey-850_02	126	41	the	the	DT
homer-odyssey-850_02	126	42	cloister	cloister	NN
homer-odyssey-850_02	126	43	,	,	,
homer-odyssey-850_02	126	44	and	and	CC
homer-odyssey-850_02	126	45	my	-PRON-	PRP$
homer-odyssey-850_02	126	46	mother	mother	NN
homer-odyssey-850_02	126	47	does	do	VBZ
homer-odyssey-850_02	126	48	not	not	RB
homer-odyssey-850_02	126	49	know	know	VB
homer-odyssey-850_02	126	50	anything	anything	NN
homer-odyssey-850_02	126	51	about	about	IN
homer-odyssey-850_02	126	52	it	-PRON-	PRP
homer-odyssey-850_02	126	53	,	,	,
homer-odyssey-850_02	126	54	nor	nor	CC
homer-odyssey-850_02	126	55	any	any	DT
homer-odyssey-850_02	126	56	of	of	IN
homer-odyssey-850_02	126	57	the	the	DT
homer-odyssey-850_02	126	58	maid	maid	JJ
homer-odyssey-850_02	126	59	servants	servant	NNS
homer-odyssey-850_02	126	60	except	except	IN
homer-odyssey-850_02	126	61	one	one	CD
homer-odyssey-850_02	126	62	.	.	.
homer-odyssey-850_02	126	63	"	"	''
homer-odyssey-850_02	127	1	With	with	IN
homer-odyssey-850_02	127	2	these	these	DT
homer-odyssey-850_02	127	3	words	word	NNS
homer-odyssey-850_02	127	4	he	-PRON-	PRP
homer-odyssey-850_02	127	5	led	lead	VBD
homer-odyssey-850_02	127	6	the	the	DT
homer-odyssey-850_02	127	7	way	way	NN
homer-odyssey-850_02	127	8	and	and	CC
homer-odyssey-850_02	127	9	the	the	DT
homer-odyssey-850_02	127	10	others	other	NNS
homer-odyssey-850_02	127	11	followed	follow	VBD
homer-odyssey-850_02	127	12	after	after	IN
homer-odyssey-850_02	127	13	.	.	.
homer-odyssey-850_02	128	1	When	when	WRB
homer-odyssey-850_02	128	2	they	-PRON-	PRP
homer-odyssey-850_02	128	3	had	have	VBD
homer-odyssey-850_02	128	4	brought	bring	VBN
homer-odyssey-850_02	128	5	the	the	DT
homer-odyssey-850_02	128	6	things	thing	NNS
homer-odyssey-850_02	128	7	as	as	IN
homer-odyssey-850_02	128	8	he	-PRON-	PRP
homer-odyssey-850_02	128	9	told	tell	VBD
homer-odyssey-850_02	128	10	them	-PRON-	PRP
homer-odyssey-850_02	128	11	,	,	,
homer-odyssey-850_02	128	12	Telemachus	telemachus	NNP
homer-odyssey-850_02	128	13	went	go	VBD
homer-odyssey-850_02	128	14	on	on	IN
homer-odyssey-850_02	128	15	board	board	NN
homer-odyssey-850_02	128	16	,	,	,
homer-odyssey-850_02	128	17	Minerva	minerva	NNP
homer-odyssey-850_02	128	18	going	go	VBG
homer-odyssey-850_02	128	19	before	before	IN
homer-odyssey-850_02	128	20	him	-PRON-	PRP
homer-odyssey-850_02	128	21	and	and	CC
homer-odyssey-850_02	128	22	taking	take	VBG
homer-odyssey-850_02	128	23	her	-PRON-	PRP$
homer-odyssey-850_02	128	24	seat	seat	NN
homer-odyssey-850_02	128	25	in	in	IN
homer-odyssey-850_02	128	26	the	the	DT
homer-odyssey-850_02	128	27	stern	stern	NN
homer-odyssey-850_02	128	28	of	of	IN
homer-odyssey-850_02	128	29	the	the	DT
homer-odyssey-850_02	128	30	vessel	vessel	NN
homer-odyssey-850_02	128	31	,	,	,
homer-odyssey-850_02	128	32	while	while	IN
homer-odyssey-850_02	128	33	Telemachus	telemachus	NNP
homer-odyssey-850_02	128	34	sat	sit	VBD
homer-odyssey-850_02	128	35	beside	beside	IN
homer-odyssey-850_02	128	36	her	-PRON-	PRP
homer-odyssey-850_02	128	37	.	.	.
homer-odyssey-850_02	129	1	Then	then	RB
homer-odyssey-850_02	129	2	the	the	DT
homer-odyssey-850_02	129	3	men	man	NNS
homer-odyssey-850_02	129	4	loosed	loose	VBD
homer-odyssey-850_02	129	5	the	the	DT
homer-odyssey-850_02	129	6	hawsers	hawser	NNS
homer-odyssey-850_02	129	7	and	and	CC
homer-odyssey-850_02	129	8	took	take	VBD
homer-odyssey-850_02	129	9	their	-PRON-	PRP$
homer-odyssey-850_02	129	10	places	place	NNS
homer-odyssey-850_02	129	11	on	on	IN
homer-odyssey-850_02	129	12	the	the	DT
homer-odyssey-850_02	129	13	benches	bench	NNS
homer-odyssey-850_02	129	14	.	.	.
homer-odyssey-850_02	130	1	Minerva	minerva	NNP
homer-odyssey-850_02	130	2	sent	send	VBD
homer-odyssey-850_02	130	3	them	-PRON-	PRP
homer-odyssey-850_02	130	4	a	a	DT
homer-odyssey-850_02	130	5	fair	fair	JJ
homer-odyssey-850_02	130	6	wind	wind	NN
homer-odyssey-850_02	130	7	from	from	IN
homer-odyssey-850_02	130	8	the	the	DT
homer-odyssey-850_02	130	9	West	west	NNP
homer-odyssey-850_02	130	10	,	,	,
homer-odyssey-850_02	130	11	{	{	-LRB-
homer-odyssey-850_02	130	12	22	22	CD
homer-odyssey-850_02	130	13	}	}	-RRB-
homer-odyssey-850_02	130	14	that	that	WDT
homer-odyssey-850_02	130	15	whistled	whistle	VBD
homer-odyssey-850_02	130	16	over	over	IN
homer-odyssey-850_02	130	17	the	the	DT
homer-odyssey-850_02	130	18	deep	deep	JJ
homer-odyssey-850_02	130	19	blue	blue	JJ
homer-odyssey-850_02	130	20	waves	wave	NNS
homer-odyssey-850_02	130	21	{	{	-LRB-
homer-odyssey-850_02	130	22	23	23	CD
homer-odyssey-850_02	130	23	}	}	-RRB-
homer-odyssey-850_02	130	24	whereon	whereon	NN
homer-odyssey-850_02	130	25	Telemachus	telemachus	NNP
homer-odyssey-850_02	130	26	told	tell	VBD
homer-odyssey-850_02	130	27	them	-PRON-	PRP
homer-odyssey-850_02	130	28	to	to	TO
homer-odyssey-850_02	130	29	catch	catch	VB
homer-odyssey-850_02	130	30	hold	hold	NN
homer-odyssey-850_02	130	31	of	of	IN
homer-odyssey-850_02	130	32	the	the	DT
homer-odyssey-850_02	130	33	ropes	rope	NNS
homer-odyssey-850_02	130	34	and	and	CC
homer-odyssey-850_02	130	35	hoist	hoist	JJ
homer-odyssey-850_02	130	36	sail	sail	NN
homer-odyssey-850_02	130	37	,	,	,
homer-odyssey-850_02	130	38	and	and	CC
homer-odyssey-850_02	130	39	they	-PRON-	PRP
homer-odyssey-850_02	130	40	did	do	VBD
homer-odyssey-850_02	130	41	as	as	IN
homer-odyssey-850_02	130	42	he	-PRON-	PRP
homer-odyssey-850_02	130	43	told	tell	VBD
homer-odyssey-850_02	130	44	them	-PRON-	PRP
homer-odyssey-850_02	130	45	.	.	.
homer-odyssey-850_02	131	1	They	-PRON-	PRP
homer-odyssey-850_02	131	2	set	set	VBD
homer-odyssey-850_02	131	3	the	the	DT
homer-odyssey-850_02	131	4	mast	mast	NN
homer-odyssey-850_02	131	5	in	in	IN
homer-odyssey-850_02	131	6	its	-PRON-	PRP$
homer-odyssey-850_02	131	7	socket	socket	NN
homer-odyssey-850_02	131	8	in	in	IN
homer-odyssey-850_02	131	9	the	the	DT
homer-odyssey-850_02	131	10	cross	cross	NN
homer-odyssey-850_02	131	11	plank	plank	NN
homer-odyssey-850_02	131	12	,	,	,
homer-odyssey-850_02	131	13	raised	raise	VBD
homer-odyssey-850_02	131	14	it	-PRON-	PRP
homer-odyssey-850_02	131	15	,	,	,
homer-odyssey-850_02	131	16	and	and	CC
homer-odyssey-850_02	131	17	made	make	VBD
homer-odyssey-850_02	131	18	it	-PRON-	PRP
homer-odyssey-850_02	131	19	fast	fast	JJ
homer-odyssey-850_02	131	20	with	with	IN
homer-odyssey-850_02	131	21	the	the	DT
homer-odyssey-850_02	131	22	forestays	forestay	NNS
homer-odyssey-850_02	131	23	;	;	:
homer-odyssey-850_02	131	24	then	then	RB
homer-odyssey-850_02	131	25	they	-PRON-	PRP
homer-odyssey-850_02	131	26	hoisted	hoist	VBD
homer-odyssey-850_02	131	27	their	-PRON-	PRP$
homer-odyssey-850_02	131	28	white	white	JJ
homer-odyssey-850_02	131	29	sails	sail	NNS
homer-odyssey-850_02	131	30	aloft	aloft	RB
homer-odyssey-850_02	131	31	with	with	IN
homer-odyssey-850_02	131	32	ropes	rope	NNS
homer-odyssey-850_02	131	33	of	of	IN
homer-odyssey-850_02	131	34	twisted	twisted	JJ
homer-odyssey-850_02	131	35	ox	ox	NN
homer-odyssey-850_02	131	36	hide	hide	NN
homer-odyssey-850_02	131	37	.	.	.
homer-odyssey-850_02	132	1	As	as	IN
homer-odyssey-850_02	132	2	the	the	DT
homer-odyssey-850_02	132	3	sail	sail	NN
homer-odyssey-850_02	132	4	bellied	belly	VBD
homer-odyssey-850_02	132	5	out	out	RP
homer-odyssey-850_02	132	6	with	with	IN
homer-odyssey-850_02	132	7	the	the	DT
homer-odyssey-850_02	132	8	wind	wind	NN
homer-odyssey-850_02	132	9	,	,	,
homer-odyssey-850_02	132	10	the	the	DT
homer-odyssey-850_02	132	11	ship	ship	NN
homer-odyssey-850_02	132	12	flew	fly	VBD
homer-odyssey-850_02	132	13	through	through	IN
homer-odyssey-850_02	132	14	the	the	DT
homer-odyssey-850_02	132	15	deep	deep	JJ
homer-odyssey-850_02	132	16	blue	blue	JJ
homer-odyssey-850_02	132	17	water	water	NN
homer-odyssey-850_02	132	18	,	,	,
homer-odyssey-850_02	132	19	and	and	CC
homer-odyssey-850_02	132	20	the	the	DT
homer-odyssey-850_02	132	21	foam	foam	NN
homer-odyssey-850_02	132	22	hissed	hiss	VBD
homer-odyssey-850_02	132	23	against	against	IN
homer-odyssey-850_02	132	24	her	-PRON-	PRP$
homer-odyssey-850_02	132	25	bows	bow	NNS
homer-odyssey-850_02	132	26	as	as	IN
homer-odyssey-850_02	132	27	she	-PRON-	PRP
homer-odyssey-850_02	132	28	sped	speed	VBD
homer-odyssey-850_02	132	29	onward	onward	RB
homer-odyssey-850_02	132	30	.	.	.
homer-odyssey-850_02	133	1	Then	then	RB
homer-odyssey-850_02	133	2	they	-PRON-	PRP
homer-odyssey-850_02	133	3	made	make	VBD
homer-odyssey-850_02	133	4	all	all	RB
homer-odyssey-850_02	133	5	fast	fast	JJ
homer-odyssey-850_02	133	6	throughout	throughout	IN
homer-odyssey-850_02	133	7	the	the	DT
homer-odyssey-850_02	133	8	ship	ship	NN
homer-odyssey-850_02	133	9	,	,	,
homer-odyssey-850_02	133	10	filled	fill	VBD
homer-odyssey-850_02	133	11	the	the	DT
homer-odyssey-850_02	133	12	mixing	mix	VBG
homer-odyssey-850_02	133	13	bowls	bowl	NNS
homer-odyssey-850_02	133	14	to	to	IN
homer-odyssey-850_02	133	15	the	the	DT
homer-odyssey-850_02	133	16	brim	brim	NN
homer-odyssey-850_02	133	17	,	,	,
homer-odyssey-850_02	133	18	and	and	CC
homer-odyssey-850_02	133	19	made	make	VBD
homer-odyssey-850_02	133	20	drink	drink	NN
homer-odyssey-850_02	133	21	offerings	offering	NNS
homer-odyssey-850_02	133	22	to	to	IN
homer-odyssey-850_02	133	23	the	the	DT
homer-odyssey-850_02	133	24	immortal	immortal	JJ
homer-odyssey-850_02	133	25	gods	god	NNS
homer-odyssey-850_02	133	26	that	that	WDT
homer-odyssey-850_02	133	27	are	be	VBP
homer-odyssey-850_02	133	28	from	from	IN
homer-odyssey-850_02	133	29	everlasting	everlasting	JJ
homer-odyssey-850_02	133	30	,	,	,
homer-odyssey-850_02	133	31	but	but	CC
homer-odyssey-850_02	133	32	more	more	RBR
homer-odyssey-850_02	133	33	particularly	particularly	RB
homer-odyssey-850_02	133	34	to	to	IN
homer-odyssey-850_02	133	35	the	the	DT
homer-odyssey-850_02	133	36	grey-	grey-	JJ
homer-odyssey-850_02	133	37	eyed	eyed	JJ
homer-odyssey-850_02	133	38	daughter	daughter	NN
homer-odyssey-850_02	133	39	of	of	IN
homer-odyssey-850_02	133	40	Jove	jove	NNP
homer-odyssey-850_02	133	41	.	.	.
homer-odyssey-850_02	134	1	Thus	thus	RB
homer-odyssey-850_02	134	2	,	,	,
homer-odyssey-850_02	134	3	then	then	RB
homer-odyssey-850_02	134	4	,	,	,
homer-odyssey-850_02	134	5	the	the	DT
homer-odyssey-850_02	134	6	ship	ship	NN
homer-odyssey-850_02	134	7	sped	speed	VBD
homer-odyssey-850_02	134	8	on	on	IN
homer-odyssey-850_02	134	9	her	-PRON-	PRP$
homer-odyssey-850_02	134	10	way	way	NN
homer-odyssey-850_02	134	11	through	through	IN
homer-odyssey-850_02	134	12	the	the	DT
homer-odyssey-850_02	134	13	watches	watch	NNS
homer-odyssey-850_02	134	14	of	of	IN
homer-odyssey-850_02	134	15	the	the	DT
homer-odyssey-850_02	134	16	night	night	NN
homer-odyssey-850_02	134	17	from	from	IN
homer-odyssey-850_02	134	18	dark	dark	NN
homer-odyssey-850_02	134	19	till	till	IN
homer-odyssey-850_02	134	20	dawn	dawn	NN
homer-odyssey-850_02	134	21	,	,	,
