id	sid	tid	token	lemma	pos
homer-odyssey-850_23	1	1	PENELOPE	penelope	NNP
homer-odyssey-850_23	1	2	EVENTUALLY	eventually	RB
homer-odyssey-850_23	1	3	RECOGNISES	recognises	NNP
homer-odyssey-850_23	1	4	HER	h	PRP$
homer-odyssey-850_23	1	5	HUSBAND	husband	NN
homer-odyssey-850_23	1	6	--	--	:
homer-odyssey-850_23	1	7	EARLY	early	RB
homer-odyssey-850_23	1	8	IN	in	IN
homer-odyssey-850_23	1	9	THE	the	DT
homer-odyssey-850_23	1	10	MORNING	morning	NN
homer-odyssey-850_23	1	11	ULYSSES	ulysses	NNP
homer-odyssey-850_23	1	12	,	,	,
homer-odyssey-850_23	1	13	TELEMACHUS	telemachus	NNP
homer-odyssey-850_23	1	14	,	,	,
homer-odyssey-850_23	1	15	EUMAEUS	eumaeus	NNP
homer-odyssey-850_23	1	16	,	,	,
homer-odyssey-850_23	1	17	AND	and	CC
homer-odyssey-850_23	1	18	PHILOETIUS	philoetius	NNP
homer-odyssey-850_23	1	19	LEAVE	leave	VBP
homer-odyssey-850_23	1	20	THE	the	DT
homer-odyssey-850_23	1	21	TOWN	town	NNP
homer-odyssey-850_23	1	22	.	.	.
homer-odyssey-850_23	2	1	Euryclea	euryclea	NNP
homer-odyssey-850_23	2	2	now	now	RB
homer-odyssey-850_23	2	3	went	go	VBD
homer-odyssey-850_23	2	4	upstairs	upstairs	RB
homer-odyssey-850_23	2	5	laughing	laugh	VBG
homer-odyssey-850_23	2	6	to	to	TO
homer-odyssey-850_23	2	7	tell	tell	VB
homer-odyssey-850_23	2	8	her	-PRON-	PRP$
homer-odyssey-850_23	2	9	mistress	mistress	NN
homer-odyssey-850_23	2	10	that	that	IN
homer-odyssey-850_23	2	11	her	-PRON-	PRP$
homer-odyssey-850_23	2	12	dear	dear	JJ
homer-odyssey-850_23	2	13	husband	husband	NN
homer-odyssey-850_23	2	14	had	have	VBD
homer-odyssey-850_23	2	15	come	come	VBN
homer-odyssey-850_23	2	16	home	home	RB
homer-odyssey-850_23	2	17	.	.	.
homer-odyssey-850_23	3	1	Her	-PRON-	PRP$
homer-odyssey-850_23	3	2	aged	aged	JJ
homer-odyssey-850_23	3	3	knees	knee	NNS
homer-odyssey-850_23	3	4	became	become	VBD
homer-odyssey-850_23	3	5	young	young	JJ
homer-odyssey-850_23	3	6	again	again	RB
homer-odyssey-850_23	3	7	and	and	CC
homer-odyssey-850_23	3	8	her	-PRON-	PRP$
homer-odyssey-850_23	3	9	feet	foot	NNS
homer-odyssey-850_23	3	10	were	be	VBD
homer-odyssey-850_23	3	11	nimble	nimble	JJ
homer-odyssey-850_23	3	12	for	for	IN
homer-odyssey-850_23	3	13	joy	joy	NN
homer-odyssey-850_23	3	14	as	as	IN
homer-odyssey-850_23	3	15	she	-PRON-	PRP
homer-odyssey-850_23	3	16	went	go	VBD
homer-odyssey-850_23	3	17	up	up	RP
homer-odyssey-850_23	3	18	to	to	IN
homer-odyssey-850_23	3	19	her	-PRON-	PRP$
homer-odyssey-850_23	3	20	mistress	mistress	NN
homer-odyssey-850_23	3	21	and	and	CC
homer-odyssey-850_23	3	22	bent	bend	VBD
homer-odyssey-850_23	3	23	over	over	IN
homer-odyssey-850_23	3	24	her	-PRON-	PRP$
homer-odyssey-850_23	3	25	head	head	NN
homer-odyssey-850_23	3	26	to	to	TO
homer-odyssey-850_23	3	27	speak	speak	VB
homer-odyssey-850_23	3	28	to	to	IN
homer-odyssey-850_23	3	29	her	-PRON-	PRP
homer-odyssey-850_23	3	30	.	.	.
homer-odyssey-850_23	3	31	"	"	''
homer-odyssey-850_23	4	1	Wake	wake	VB
homer-odyssey-850_23	4	2	up	up	RP
homer-odyssey-850_23	4	3	Penelope	penelope	NNP
homer-odyssey-850_23	4	4	,	,	,
homer-odyssey-850_23	4	5	my	-PRON-	PRP$
homer-odyssey-850_23	4	6	dear	dear	JJ
homer-odyssey-850_23	4	7	child	child	NN
homer-odyssey-850_23	4	8	,	,	,
homer-odyssey-850_23	4	9	"	"	''
homer-odyssey-850_23	4	10	she	-PRON-	PRP
homer-odyssey-850_23	4	11	exclaimed	exclaim	VBD
homer-odyssey-850_23	4	12	,	,	,
homer-odyssey-850_23	4	13	"	"	''
homer-odyssey-850_23	4	14	and	and	CC
homer-odyssey-850_23	4	15	see	see	VB
homer-odyssey-850_23	4	16	with	with	IN
homer-odyssey-850_23	4	17	your	-PRON-	PRP$
homer-odyssey-850_23	4	18	own	own	JJ
homer-odyssey-850_23	4	19	eyes	eye	NNS
homer-odyssey-850_23	4	20	something	something	NN
homer-odyssey-850_23	4	21	that	that	WDT
homer-odyssey-850_23	4	22	you	-PRON-	PRP
homer-odyssey-850_23	4	23	have	have	VBP
homer-odyssey-850_23	4	24	been	be	VBN
homer-odyssey-850_23	4	25	wanting	want	VBG
homer-odyssey-850_23	4	26	this	this	DT
homer-odyssey-850_23	4	27	long	long	JJ
homer-odyssey-850_23	4	28	time	time	NN
homer-odyssey-850_23	4	29	past	past	NN
homer-odyssey-850_23	4	30	.	.	.
homer-odyssey-850_23	5	1	Ulysses	ulyss	NNS
homer-odyssey-850_23	5	2	has	have	VBZ
homer-odyssey-850_23	5	3	at	at	IN
homer-odyssey-850_23	5	4	last	last	JJ
homer-odyssey-850_23	5	5	indeed	indeed	RB
homer-odyssey-850_23	5	6	come	come	VB
homer-odyssey-850_23	5	7	home	home	RB
homer-odyssey-850_23	5	8	again	again	RB
homer-odyssey-850_23	5	9	,	,	,
homer-odyssey-850_23	5	10	and	and	CC
homer-odyssey-850_23	5	11	has	have	VBZ
homer-odyssey-850_23	5	12	killed	kill	VBN
homer-odyssey-850_23	5	13	the	the	DT
homer-odyssey-850_23	5	14	suitors	suitor	NNS
homer-odyssey-850_23	5	15	who	who	WP
homer-odyssey-850_23	5	16	were	be	VBD
homer-odyssey-850_23	5	17	giving	give	VBG
homer-odyssey-850_23	5	18	so	so	RB
homer-odyssey-850_23	5	19	much	much	JJ
homer-odyssey-850_23	5	20	trouble	trouble	NN
homer-odyssey-850_23	5	21	in	in	IN
homer-odyssey-850_23	5	22	his	-PRON-	PRP$
homer-odyssey-850_23	5	23	house	house	NN
homer-odyssey-850_23	5	24	,	,	,
homer-odyssey-850_23	5	25	eating	eat	VBG
homer-odyssey-850_23	5	26	up	up	RP
homer-odyssey-850_23	5	27	his	-PRON-	PRP$
homer-odyssey-850_23	5	28	estate	estate	NN
homer-odyssey-850_23	5	29	and	and	CC
homer-odyssey-850_23	5	30	ill	ill	RB
homer-odyssey-850_23	5	31	treating	treat	VBG
homer-odyssey-850_23	5	32	his	-PRON-	PRP$
homer-odyssey-850_23	5	33	son	son	NN
homer-odyssey-850_23	5	34	.	.	.
homer-odyssey-850_23	5	35	"	"	''
homer-odyssey-850_23	6	1	"	"	``
homer-odyssey-850_23	6	2	My	-PRON-	PRP$
homer-odyssey-850_23	6	3	good	good	JJ
homer-odyssey-850_23	6	4	nurse	nurse	NN
homer-odyssey-850_23	6	5	,	,	,
homer-odyssey-850_23	6	6	"	"	''
homer-odyssey-850_23	6	7	answered	answer	VBD
homer-odyssey-850_23	6	8	Penelope	penelope	NNP
homer-odyssey-850_23	6	9	,	,	,
homer-odyssey-850_23	6	10	"	"	``
homer-odyssey-850_23	6	11	you	-PRON-	PRP
homer-odyssey-850_23	6	12	must	must	MD
homer-odyssey-850_23	6	13	be	be	VB
homer-odyssey-850_23	6	14	mad	mad	JJ
homer-odyssey-850_23	6	15	.	.	.
homer-odyssey-850_23	7	1	The	the	DT
homer-odyssey-850_23	7	2	gods	god	NNS
homer-odyssey-850_23	7	3	sometimes	sometimes	RB
homer-odyssey-850_23	7	4	send	send	VBP
homer-odyssey-850_23	7	5	some	some	DT
homer-odyssey-850_23	7	6	very	very	RB
homer-odyssey-850_23	7	7	sensible	sensible	JJ
homer-odyssey-850_23	7	8	people	people	NNS
homer-odyssey-850_23	7	9	out	out	IN
homer-odyssey-850_23	7	10	of	of	IN
homer-odyssey-850_23	7	11	their	-PRON-	PRP$
homer-odyssey-850_23	7	12	minds	mind	NNS
homer-odyssey-850_23	7	13	,	,	,
homer-odyssey-850_23	7	14	and	and	CC
homer-odyssey-850_23	7	15	make	make	VB
homer-odyssey-850_23	7	16	foolish	foolish	JJ
homer-odyssey-850_23	7	17	people	people	NNS
homer-odyssey-850_23	7	18	become	become	VB
homer-odyssey-850_23	7	19	sensible	sensible	JJ
homer-odyssey-850_23	7	20	.	.	.
homer-odyssey-850_23	8	1	This	this	DT
homer-odyssey-850_23	8	2	is	be	VBZ
homer-odyssey-850_23	8	3	what	what	WP
homer-odyssey-850_23	8	4	they	-PRON-	PRP
homer-odyssey-850_23	8	5	must	must	MD
homer-odyssey-850_23	8	6	have	have	VB
homer-odyssey-850_23	8	7	been	be	VBN
homer-odyssey-850_23	8	8	doing	do	VBG
homer-odyssey-850_23	8	9	to	to	IN
homer-odyssey-850_23	8	10	you	-PRON-	PRP
homer-odyssey-850_23	8	11	;	;	:
homer-odyssey-850_23	8	12	for	for	IN
homer-odyssey-850_23	8	13	you	-PRON-	PRP
homer-odyssey-850_23	8	14	always	always	RB
homer-odyssey-850_23	8	15	used	use	VBD
homer-odyssey-850_23	8	16	to	to	TO
homer-odyssey-850_23	8	17	be	be	VB
homer-odyssey-850_23	8	18	a	a	DT
homer-odyssey-850_23	8	19	reasonable	reasonable	JJ
homer-odyssey-850_23	8	20	person	person	NN
homer-odyssey-850_23	8	21	.	.	.
homer-odyssey-850_23	9	1	Why	why	WRB
homer-odyssey-850_23	9	2	should	should	MD
homer-odyssey-850_23	9	3	you	-PRON-	PRP
homer-odyssey-850_23	9	4	thus	thus	RB
homer-odyssey-850_23	9	5	mock	mock	VB
homer-odyssey-850_23	9	6	me	-PRON-	PRP
homer-odyssey-850_23	9	7	when	when	WRB
homer-odyssey-850_23	9	8	I	-PRON-	PRP
homer-odyssey-850_23	9	9	have	have	VBP
homer-odyssey-850_23	9	10	trouble	trouble	NN
homer-odyssey-850_23	9	11	enough	enough	RB
homer-odyssey-850_23	9	12	already--	already--	NN
homer-odyssey-850_23	9	13	talking	talk	VBG
homer-odyssey-850_23	9	14	such	such	JJ
homer-odyssey-850_23	9	15	nonsense	nonsense	NN
homer-odyssey-850_23	9	16	,	,	,
homer-odyssey-850_23	9	17	and	and	CC
homer-odyssey-850_23	9	18	waking	wake	VBG
homer-odyssey-850_23	9	19	me	-PRON-	PRP
homer-odyssey-850_23	9	20	up	up	RP
homer-odyssey-850_23	9	21	out	out	IN
homer-odyssey-850_23	9	22	of	of	IN
homer-odyssey-850_23	9	23	a	a	DT
homer-odyssey-850_23	9	24	sweet	sweet	JJ
homer-odyssey-850_23	9	25	sleep	sleep	NN
homer-odyssey-850_23	9	26	that	that	WDT
homer-odyssey-850_23	9	27	had	have	VBD
homer-odyssey-850_23	9	28	taken	take	VBN
homer-odyssey-850_23	9	29	possession	possession	NN
homer-odyssey-850_23	9	30	of	of	IN
homer-odyssey-850_23	9	31	my	-PRON-	PRP$
homer-odyssey-850_23	9	32	eyes	eye	NNS
homer-odyssey-850_23	9	33	and	and	CC
homer-odyssey-850_23	9	34	closed	close	VBD
homer-odyssey-850_23	9	35	them	-PRON-	PRP
homer-odyssey-850_23	9	36	?	?	.
homer-odyssey-850_23	10	1	I	-PRON-	PRP
homer-odyssey-850_23	10	2	have	have	VBP
homer-odyssey-850_23	10	3	never	never	RB
homer-odyssey-850_23	10	4	slept	sleep	VBN
homer-odyssey-850_23	10	5	so	so	RB
homer-odyssey-850_23	10	6	soundly	soundly	RB
homer-odyssey-850_23	10	7	from	from	IN
homer-odyssey-850_23	10	8	the	the	DT
homer-odyssey-850_23	10	9	day	day	NN
homer-odyssey-850_23	10	10	my	-PRON-	PRP$
homer-odyssey-850_23	10	11	poor	poor	JJ
homer-odyssey-850_23	10	12	husband	husband	NN
homer-odyssey-850_23	10	13	went	go	VBD
homer-odyssey-850_23	10	14	to	to	IN
homer-odyssey-850_23	10	15	that	that	DT
homer-odyssey-850_23	10	16	city	city	NN
homer-odyssey-850_23	10	17	with	with	IN
homer-odyssey-850_23	10	18	the	the	DT
homer-odyssey-850_23	10	19	ill-	ill-	NN
homer-odyssey-850_23	10	20	omened	omen	VBD
homer-odyssey-850_23	10	21	name	name	NN
homer-odyssey-850_23	10	22	.	.	.
homer-odyssey-850_23	11	1	Go	go	VB
homer-odyssey-850_23	11	2	back	back	RB
homer-odyssey-850_23	11	3	again	again	RB
homer-odyssey-850_23	11	4	into	into	IN
homer-odyssey-850_23	11	5	the	the	DT
homer-odyssey-850_23	11	6	women	woman	NNS
homer-odyssey-850_23	11	7	's	's	POS
homer-odyssey-850_23	11	8	room	room	NN
homer-odyssey-850_23	11	9	;	;	:
homer-odyssey-850_23	11	10	if	if	IN
homer-odyssey-850_23	11	11	it	-PRON-	PRP
homer-odyssey-850_23	11	12	had	have	VBD
homer-odyssey-850_23	11	13	been	be	VBN
homer-odyssey-850_23	11	14	any	any	DT
homer-odyssey-850_23	11	15	one	one	NN
homer-odyssey-850_23	11	16	else	else	RB
homer-odyssey-850_23	11	17	who	who	WP
homer-odyssey-850_23	11	18	had	have	VBD
homer-odyssey-850_23	11	19	woke	wake	VBN
homer-odyssey-850_23	11	20	me	-PRON-	PRP
homer-odyssey-850_23	11	21	up	up	RP
homer-odyssey-850_23	11	22	to	to	TO
homer-odyssey-850_23	11	23	bring	bring	VB
homer-odyssey-850_23	11	24	me	-PRON-	PRP
homer-odyssey-850_23	11	25	such	such	JJ
homer-odyssey-850_23	11	26	absurd	absurd	JJ
homer-odyssey-850_23	11	27	news	news	NN
homer-odyssey-850_23	11	28	I	-PRON-	PRP
homer-odyssey-850_23	11	29	should	should	MD
homer-odyssey-850_23	11	30	have	have	VB
homer-odyssey-850_23	11	31	sent	send	VBN
homer-odyssey-850_23	11	32	her	-PRON-	PRP
homer-odyssey-850_23	11	33	away	away	RB
homer-odyssey-850_23	11	34	with	with	IN
homer-odyssey-850_23	11	35	a	a	DT
homer-odyssey-850_23	11	36	severe	severe	JJ
homer-odyssey-850_23	11	37	scolding	scolding	NN
homer-odyssey-850_23	11	38	.	.	.
homer-odyssey-850_23	12	1	As	as	IN
homer-odyssey-850_23	12	2	it	-PRON-	PRP
homer-odyssey-850_23	12	3	is	be	VBZ
homer-odyssey-850_23	12	4	your	-PRON-	PRP$
homer-odyssey-850_23	12	5	age	age	NN
homer-odyssey-850_23	12	6	shall	shall	MD
homer-odyssey-850_23	12	7	protect	protect	VB
homer-odyssey-850_23	12	8	you	-PRON-	PRP
homer-odyssey-850_23	12	9	.	.	.
homer-odyssey-850_23	12	10	"	"	''
homer-odyssey-850_23	13	1	"	"	``
homer-odyssey-850_23	13	2	My	-PRON-	PRP$
homer-odyssey-850_23	13	3	dear	dear	JJ
homer-odyssey-850_23	13	4	child	child	NN
homer-odyssey-850_23	13	5	,	,	,
homer-odyssey-850_23	13	6	"	"	''
homer-odyssey-850_23	13	7	answered	answer	VBD
homer-odyssey-850_23	13	8	Euryclea	euryclea	NNP
homer-odyssey-850_23	13	9	,	,	,
homer-odyssey-850_23	13	10	"	"	``
homer-odyssey-850_23	13	11	I	-PRON-	PRP
homer-odyssey-850_23	13	12	am	be	VBP
homer-odyssey-850_23	13	13	not	not	RB
homer-odyssey-850_23	13	14	mocking	mock	VBG
homer-odyssey-850_23	13	15	you	-PRON-	PRP
homer-odyssey-850_23	13	16	.	.	.
homer-odyssey-850_23	14	1	It	-PRON-	PRP
homer-odyssey-850_23	14	2	is	be	VBZ
homer-odyssey-850_23	14	3	quite	quite	RB
homer-odyssey-850_23	14	4	true	true	JJ
homer-odyssey-850_23	14	5	as	as	IN
homer-odyssey-850_23	14	6	I	-PRON-	PRP
homer-odyssey-850_23	14	7	tell	tell	VBP
homer-odyssey-850_23	14	8	you	-PRON-	PRP
homer-odyssey-850_23	14	9	that	that	IN
homer-odyssey-850_23	14	10	Ulysses	ulyss	NNS
homer-odyssey-850_23	14	11	is	be	VBZ
homer-odyssey-850_23	14	12	come	come	VBN
homer-odyssey-850_23	14	13	home	home	RB
homer-odyssey-850_23	14	14	again	again	RB
homer-odyssey-850_23	14	15	.	.	.
homer-odyssey-850_23	15	1	He	-PRON-	PRP
homer-odyssey-850_23	15	2	was	be	VBD
homer-odyssey-850_23	15	3	the	the	DT
homer-odyssey-850_23	15	4	stranger	stranger	NN
homer-odyssey-850_23	15	5	whom	whom	WP
homer-odyssey-850_23	15	6	they	-PRON-	PRP
homer-odyssey-850_23	15	7	all	all	DT
homer-odyssey-850_23	15	8	kept	keep	VBD
homer-odyssey-850_23	15	9	on	on	RP
homer-odyssey-850_23	15	10	treating	treat	VBG
homer-odyssey-850_23	15	11	so	so	RB
homer-odyssey-850_23	15	12	badly	badly	RB
homer-odyssey-850_23	15	13	in	in	IN
homer-odyssey-850_23	15	14	the	the	DT
homer-odyssey-850_23	15	15	cloister	cloister	NN
homer-odyssey-850_23	15	16	.	.	.
homer-odyssey-850_23	16	1	Telemachus	telemachus	NNP
homer-odyssey-850_23	16	2	knew	know	VBD
homer-odyssey-850_23	16	3	all	all	PDT
homer-odyssey-850_23	16	4	the	the	DT
homer-odyssey-850_23	16	5	time	time	NN
homer-odyssey-850_23	16	6	that	that	WDT
homer-odyssey-850_23	16	7	he	-PRON-	PRP
homer-odyssey-850_23	16	8	was	be	VBD
homer-odyssey-850_23	16	9	come	come	VBN
homer-odyssey-850_23	16	10	back	back	RB
homer-odyssey-850_23	16	11	,	,	,
homer-odyssey-850_23	16	12	but	but	CC
homer-odyssey-850_23	16	13	kept	keep	VBD
homer-odyssey-850_23	16	14	his	-PRON-	PRP$
homer-odyssey-850_23	16	15	father	father	NN
homer-odyssey-850_23	16	16	's	's	POS
homer-odyssey-850_23	16	17	secret	secret	NN
homer-odyssey-850_23	16	18	that	that	IN
homer-odyssey-850_23	16	19	he	-PRON-	PRP
homer-odyssey-850_23	16	20	might	may	MD
homer-odyssey-850_23	16	21	have	have	VB
homer-odyssey-850_23	16	22	his	-PRON-	PRP$
homer-odyssey-850_23	16	23	revenge	revenge	NN
homer-odyssey-850_23	16	24	on	on	IN
homer-odyssey-850_23	16	25	all	all	PDT
homer-odyssey-850_23	16	26	these	these	DT
homer-odyssey-850_23	16	27	wicked	wicked	JJ
homer-odyssey-850_23	16	28	people	people	NNS
homer-odyssey-850_23	16	29	.	.	.
homer-odyssey-850_23	16	30	"	"	''
homer-odyssey-850_23	17	1	Then	then	RB
homer-odyssey-850_23	17	2	Penelope	penelope	NNP
homer-odyssey-850_23	17	3	sprang	spring	VBD
homer-odyssey-850_23	17	4	up	up	RP
homer-odyssey-850_23	17	5	from	from	IN
homer-odyssey-850_23	17	6	her	-PRON-	PRP$
homer-odyssey-850_23	17	7	couch	couch	NN
homer-odyssey-850_23	17	8	,	,	,
homer-odyssey-850_23	17	9	threw	throw	VBD
homer-odyssey-850_23	17	10	her	-PRON-	PRP$
homer-odyssey-850_23	17	11	arms	arm	NNS
homer-odyssey-850_23	17	12	round	round	IN
homer-odyssey-850_23	17	13	Euryclea	euryclea	NNP
homer-odyssey-850_23	17	14	,	,	,
homer-odyssey-850_23	17	15	and	and	CC
homer-odyssey-850_23	17	16	wept	weep	VBD
homer-odyssey-850_23	17	17	for	for	IN
homer-odyssey-850_23	17	18	joy	joy	NN
homer-odyssey-850_23	17	19	.	.	.
homer-odyssey-850_23	17	20	"	"	''
homer-odyssey-850_23	18	1	But	but	CC
homer-odyssey-850_23	18	2	my	-PRON-	PRP$
homer-odyssey-850_23	18	3	dear	dear	JJ
homer-odyssey-850_23	18	4	nurse	nurse	NN
homer-odyssey-850_23	18	5	,	,	,
homer-odyssey-850_23	18	6	"	"	''
homer-odyssey-850_23	18	7	said	say	VBD
homer-odyssey-850_23	18	8	she	-PRON-	PRP
homer-odyssey-850_23	18	9	,	,	,
homer-odyssey-850_23	18	10	"	"	``
homer-odyssey-850_23	18	11	explain	explain	VBP
homer-odyssey-850_23	18	12	this	this	DT
homer-odyssey-850_23	18	13	to	to	IN
homer-odyssey-850_23	18	14	me	-PRON-	PRP
homer-odyssey-850_23	18	15	;	;	:
homer-odyssey-850_23	18	16	if	if	IN
homer-odyssey-850_23	18	17	he	-PRON-	PRP
homer-odyssey-850_23	18	18	has	have	VBZ
homer-odyssey-850_23	18	19	really	really	RB
homer-odyssey-850_23	18	20	come	come	VBN
homer-odyssey-850_23	18	21	home	home	RB
homer-odyssey-850_23	18	22	as	as	IN
homer-odyssey-850_23	18	23	you	-PRON-	PRP
homer-odyssey-850_23	18	24	say	say	VBP
homer-odyssey-850_23	18	25	,	,	,
homer-odyssey-850_23	18	26	how	how	WRB
homer-odyssey-850_23	18	27	did	do	VBD
homer-odyssey-850_23	18	28	he	-PRON-	PRP
homer-odyssey-850_23	18	29	manage	manage	VB
homer-odyssey-850_23	18	30	to	to	TO
homer-odyssey-850_23	18	31	overcome	overcome	VB
homer-odyssey-850_23	18	32	the	the	DT
homer-odyssey-850_23	18	33	wicked	wicked	JJ
homer-odyssey-850_23	18	34	suitors	suitor	NNS
homer-odyssey-850_23	18	35	single	single	JJ
homer-odyssey-850_23	18	36	handed	handed	JJ
homer-odyssey-850_23	18	37	,	,	,
homer-odyssey-850_23	18	38	seeing	see	VBG
homer-odyssey-850_23	18	39	what	what	WP
homer-odyssey-850_23	18	40	a	a	DT
homer-odyssey-850_23	18	41	number	number	NN
homer-odyssey-850_23	18	42	of	of	IN
homer-odyssey-850_23	18	43	them	-PRON-	PRP
homer-odyssey-850_23	18	44	there	there	EX
homer-odyssey-850_23	18	45	always	always	RB
homer-odyssey-850_23	18	46	were	be	VBD
homer-odyssey-850_23	18	47	?	?	.
homer-odyssey-850_23	18	48	"	"	''
homer-odyssey-850_23	19	1	"	"	``
homer-odyssey-850_23	19	2	I	-PRON-	PRP
homer-odyssey-850_23	19	3	was	be	VBD
homer-odyssey-850_23	19	4	not	not	RB
homer-odyssey-850_23	19	5	there	there	RB
homer-odyssey-850_23	19	6	,	,	,
homer-odyssey-850_23	19	7	"	"	''
homer-odyssey-850_23	19	8	answered	answer	VBD
homer-odyssey-850_23	19	9	Euryclea	euryclea	NNP
homer-odyssey-850_23	19	10	,	,	,
homer-odyssey-850_23	19	11	"	"	''
homer-odyssey-850_23	19	12	and	and	CC
homer-odyssey-850_23	19	13	do	do	VBP
homer-odyssey-850_23	19	14	not	not	RB
homer-odyssey-850_23	19	15	know	know	VB
homer-odyssey-850_23	19	16	;	;	:
homer-odyssey-850_23	19	17	I	-PRON-	PRP
homer-odyssey-850_23	19	18	only	only	RB
homer-odyssey-850_23	19	19	heard	hear	VBD
homer-odyssey-850_23	19	20	them	-PRON-	PRP
homer-odyssey-850_23	19	21	groaning	groan	VBG
homer-odyssey-850_23	19	22	while	while	IN
homer-odyssey-850_23	19	23	they	-PRON-	PRP
homer-odyssey-850_23	19	24	were	be	VBD
homer-odyssey-850_23	19	25	being	be	VBG
homer-odyssey-850_23	19	26	killed	kill	VBN
homer-odyssey-850_23	19	27	.	.	.
homer-odyssey-850_23	20	1	We	-PRON-	PRP
homer-odyssey-850_23	20	2	sat	sit	VBD
homer-odyssey-850_23	20	3	crouching	crouch	VBG
homer-odyssey-850_23	20	4	and	and	CC
homer-odyssey-850_23	20	5	huddled	huddle	VBD
homer-odyssey-850_23	20	6	up	up	RP
homer-odyssey-850_23	20	7	in	in	IN
homer-odyssey-850_23	20	8	a	a	DT
homer-odyssey-850_23	20	9	corner	corner	NN
homer-odyssey-850_23	20	10	of	of	IN
homer-odyssey-850_23	20	11	the	the	DT
homer-odyssey-850_23	20	12	women	woman	NNS
homer-odyssey-850_23	20	13	's	's	POS
homer-odyssey-850_23	20	14	room	room	NN
homer-odyssey-850_23	20	15	with	with	IN
homer-odyssey-850_23	20	16	the	the	DT
homer-odyssey-850_23	20	17	doors	door	NNS
homer-odyssey-850_23	20	18	closed	close	VBD
homer-odyssey-850_23	20	19	,	,	,
homer-odyssey-850_23	20	20	till	till	IN
homer-odyssey-850_23	20	21	your	-PRON-	PRP$
homer-odyssey-850_23	20	22	son	son	NN
homer-odyssey-850_23	20	23	came	come	VBD
homer-odyssey-850_23	20	24	to	to	TO
homer-odyssey-850_23	20	25	fetch	fetch	VB
homer-odyssey-850_23	20	26	me	-PRON-	PRP
homer-odyssey-850_23	20	27	because	because	IN
homer-odyssey-850_23	20	28	his	-PRON-	PRP$
homer-odyssey-850_23	20	29	father	father	NN
homer-odyssey-850_23	20	30	sent	send	VBD
homer-odyssey-850_23	20	31	him	-PRON-	PRP
homer-odyssey-850_23	20	32	.	.	.
homer-odyssey-850_23	21	1	Then	then	RB
homer-odyssey-850_23	21	2	I	-PRON-	PRP
homer-odyssey-850_23	21	3	found	find	VBD
homer-odyssey-850_23	21	4	Ulysses	ulyss	NNS
homer-odyssey-850_23	21	5	standing	stand	VBG
homer-odyssey-850_23	21	6	over	over	IN
homer-odyssey-850_23	21	7	the	the	DT
homer-odyssey-850_23	21	8	corpses	corps	NNS
homer-odyssey-850_23	21	9	that	that	WDT
homer-odyssey-850_23	21	10	were	be	VBD
homer-odyssey-850_23	21	11	lying	lie	VBG
homer-odyssey-850_23	21	12	on	on	IN
homer-odyssey-850_23	21	13	the	the	DT
homer-odyssey-850_23	21	14	ground	ground	NN
homer-odyssey-850_23	21	15	all	all	RB
homer-odyssey-850_23	21	16	round	round	IN
homer-odyssey-850_23	21	17	him	-PRON-	PRP
homer-odyssey-850_23	21	18	,	,	,
homer-odyssey-850_23	21	19	one	one	CD
homer-odyssey-850_23	21	20	on	on	IN
homer-odyssey-850_23	21	21	top	top	NN
homer-odyssey-850_23	21	22	of	of	IN
homer-odyssey-850_23	21	23	the	the	DT
homer-odyssey-850_23	21	24	other	other	JJ
homer-odyssey-850_23	21	25	.	.	.
homer-odyssey-850_23	22	1	You	-PRON-	PRP
homer-odyssey-850_23	22	2	would	would	MD
homer-odyssey-850_23	22	3	have	have	VB
homer-odyssey-850_23	22	4	enjoyed	enjoy	VBN
homer-odyssey-850_23	22	5	it	-PRON-	PRP
homer-odyssey-850_23	22	6	if	if	IN
homer-odyssey-850_23	22	7	you	-PRON-	PRP
homer-odyssey-850_23	22	8	could	could	MD
homer-odyssey-850_23	22	9	have	have	VB
homer-odyssey-850_23	22	10	seen	see	VBN
homer-odyssey-850_23	22	11	him	-PRON-	PRP
homer-odyssey-850_23	22	12	standing	stand	VBG
homer-odyssey-850_23	22	13	there	there	RB
homer-odyssey-850_23	22	14	all	all	DT
homer-odyssey-850_23	22	15	bespattered	bespatter	VBD
homer-odyssey-850_23	22	16	with	with	IN
homer-odyssey-850_23	22	17	blood	blood	NN
homer-odyssey-850_23	22	18	and	and	CC
homer-odyssey-850_23	22	19	filth	filth	NN
homer-odyssey-850_23	22	20	,	,	,
homer-odyssey-850_23	22	21	and	and	CC
homer-odyssey-850_23	22	22	looking	look	VBG
homer-odyssey-850_23	22	23	just	just	RB
homer-odyssey-850_23	22	24	like	like	IN
homer-odyssey-850_23	22	25	a	a	DT
homer-odyssey-850_23	22	26	lion	lion	NN
homer-odyssey-850_23	22	27	.	.	.
homer-odyssey-850_23	23	1	But	but	CC
homer-odyssey-850_23	23	2	the	the	DT
homer-odyssey-850_23	23	3	corpses	corps	NNS
homer-odyssey-850_23	23	4	are	be	VBP
homer-odyssey-850_23	23	5	now	now	RB
homer-odyssey-850_23	23	6	all	all	RB
homer-odyssey-850_23	23	7	piled	pile	VBN
homer-odyssey-850_23	23	8	up	up	RP
homer-odyssey-850_23	23	9	in	in	IN
homer-odyssey-850_23	23	10	the	the	DT
homer-odyssey-850_23	23	11	gatehouse	gatehouse	NN
homer-odyssey-850_23	23	12	that	that	WDT
homer-odyssey-850_23	23	13	is	be	VBZ
homer-odyssey-850_23	23	14	in	in	IN
homer-odyssey-850_23	23	15	the	the	DT
homer-odyssey-850_23	23	16	outer	outer	JJ
homer-odyssey-850_23	23	17	court	court	NN
homer-odyssey-850_23	23	18	,	,	,
homer-odyssey-850_23	23	19	and	and	CC
homer-odyssey-850_23	23	20	Ulysses	ulyss	NNS
homer-odyssey-850_23	23	21	has	have	VBZ
homer-odyssey-850_23	23	22	lit	light	VBN
homer-odyssey-850_23	23	23	a	a	DT
homer-odyssey-850_23	23	24	great	great	JJ
homer-odyssey-850_23	23	25	fire	fire	NN
homer-odyssey-850_23	23	26	to	to	TO
homer-odyssey-850_23	23	27	purify	purify	VB
homer-odyssey-850_23	23	28	the	the	DT
homer-odyssey-850_23	23	29	house	house	NN
homer-odyssey-850_23	23	30	with	with	IN
homer-odyssey-850_23	23	31	sulphur	sulphur	NN
homer-odyssey-850_23	23	32	.	.	.
homer-odyssey-850_23	24	1	He	-PRON-	PRP
homer-odyssey-850_23	24	2	has	have	VBZ
homer-odyssey-850_23	24	3	sent	send	VBN
homer-odyssey-850_23	24	4	me	-PRON-	PRP
homer-odyssey-850_23	24	5	to	to	TO
homer-odyssey-850_23	24	6	call	call	VB
homer-odyssey-850_23	24	7	you	-PRON-	PRP
homer-odyssey-850_23	24	8	,	,	,
homer-odyssey-850_23	24	9	so	so	RB
homer-odyssey-850_23	24	10	come	come	VB
homer-odyssey-850_23	24	11	with	with	IN
homer-odyssey-850_23	24	12	me	-PRON-	PRP
homer-odyssey-850_23	24	13	that	that	IN
homer-odyssey-850_23	24	14	you	-PRON-	PRP
homer-odyssey-850_23	24	15	may	may	MD
homer-odyssey-850_23	24	16	both	both	DT
homer-odyssey-850_23	24	17	be	be	VB
homer-odyssey-850_23	24	18	happy	happy	JJ
homer-odyssey-850_23	24	19	together	together	RB
homer-odyssey-850_23	24	20	after	after	RB
homer-odyssey-850_23	24	21	all	all	RB
homer-odyssey-850_23	24	22	;	;	:
homer-odyssey-850_23	24	23	for	for	IN
homer-odyssey-850_23	24	24	now	now	RB
homer-odyssey-850_23	24	25	at	at	IN
homer-odyssey-850_23	24	26	last	last	JJ
homer-odyssey-850_23	24	27	the	the	DT
homer-odyssey-850_23	24	28	desire	desire	NN
homer-odyssey-850_23	24	29	of	of	IN
homer-odyssey-850_23	24	30	your	-PRON-	PRP$
homer-odyssey-850_23	24	31	heart	heart	NN
homer-odyssey-850_23	24	32	has	have	VBZ
homer-odyssey-850_23	24	33	been	be	VBN
homer-odyssey-850_23	24	34	fulfilled	fulfil	VBN
homer-odyssey-850_23	24	35	;	;	:
homer-odyssey-850_23	24	36	your	-PRON-	PRP$
homer-odyssey-850_23	24	37	husband	husband	NN
homer-odyssey-850_23	24	38	is	be	VBZ
homer-odyssey-850_23	24	39	come	come	VBN
homer-odyssey-850_23	24	40	home	home	RB
homer-odyssey-850_23	24	41	to	to	TO
homer-odyssey-850_23	24	42	find	find	VB
homer-odyssey-850_23	24	43	both	both	DT
homer-odyssey-850_23	24	44	wife	wife	NN
homer-odyssey-850_23	24	45	and	and	CC
homer-odyssey-850_23	24	46	son	son	NN
homer-odyssey-850_23	24	47	alive	alive	JJ
homer-odyssey-850_23	24	48	and	and	CC
homer-odyssey-850_23	24	49	well	well	UH
homer-odyssey-850_23	24	50	,	,	,
homer-odyssey-850_23	24	51	and	and	CC
homer-odyssey-850_23	24	52	to	to	TO
homer-odyssey-850_23	24	53	take	take	VB
homer-odyssey-850_23	24	54	his	-PRON-	PRP$
homer-odyssey-850_23	24	55	revenge	revenge	NN
homer-odyssey-850_23	24	56	in	in	IN
homer-odyssey-850_23	24	57	his	-PRON-	PRP$
homer-odyssey-850_23	24	58	own	own	JJ
homer-odyssey-850_23	24	59	house	house	NN
homer-odyssey-850_23	24	60	on	on	IN
homer-odyssey-850_23	24	61	the	the	DT
homer-odyssey-850_23	24	62	suitors	suitor	NNS
homer-odyssey-850_23	24	63	who	who	WP
homer-odyssey-850_23	24	64	behaved	behave	VBD
homer-odyssey-850_23	24	65	so	so	RB
homer-odyssey-850_23	24	66	badly	badly	RB
homer-odyssey-850_23	24	67	to	to	IN
homer-odyssey-850_23	24	68	him	-PRON-	PRP
homer-odyssey-850_23	24	69	.	.	.
homer-odyssey-850_23	24	70	"	"	''
homer-odyssey-850_23	25	1	"	"	``
homer-odyssey-850_23	25	2	My	-PRON-	PRP$
homer-odyssey-850_23	25	3	dear	dear	JJ
homer-odyssey-850_23	25	4	nurse	nurse	NN
homer-odyssey-850_23	25	5	,	,	,
homer-odyssey-850_23	25	6	"	"	''
homer-odyssey-850_23	25	7	said	say	VBD
homer-odyssey-850_23	25	8	Penelope	penelope	NNP
homer-odyssey-850_23	25	9	,	,	,
homer-odyssey-850_23	25	10	"	"	``
homer-odyssey-850_23	25	11	do	do	VBP
homer-odyssey-850_23	25	12	not	not	RB
homer-odyssey-850_23	25	13	exult	exult	VB
homer-odyssey-850_23	25	14	too	too	RB
homer-odyssey-850_23	25	15	confidently	confidently	RB
homer-odyssey-850_23	25	16	over	over	IN
homer-odyssey-850_23	25	17	all	all	PDT
homer-odyssey-850_23	25	18	this	this	DT
homer-odyssey-850_23	25	19	.	.	.
homer-odyssey-850_23	26	1	You	-PRON-	PRP
homer-odyssey-850_23	26	2	know	know	VBP
homer-odyssey-850_23	26	3	how	how	WRB
homer-odyssey-850_23	26	4	delighted	delighted	JJ
homer-odyssey-850_23	26	5	every	every	DT
homer-odyssey-850_23	26	6	one	one	NN
homer-odyssey-850_23	26	7	would	would	MD
homer-odyssey-850_23	26	8	be	be	VB
homer-odyssey-850_23	26	9	to	to	TO
homer-odyssey-850_23	26	10	see	see	VB
homer-odyssey-850_23	26	11	Ulysses	ulyss	NNS
homer-odyssey-850_23	26	12	come	come	VB
homer-odyssey-850_23	26	13	home--	home--	NNP
homer-odyssey-850_23	26	14	more	more	RBR
homer-odyssey-850_23	26	15	particularly	particularly	RB
homer-odyssey-850_23	26	16	myself	-PRON-	PRP
homer-odyssey-850_23	26	17	,	,	,
homer-odyssey-850_23	26	18	and	and	CC
homer-odyssey-850_23	26	19	the	the	DT
homer-odyssey-850_23	26	20	son	son	NN
homer-odyssey-850_23	26	21	who	who	WP
homer-odyssey-850_23	26	22	has	have	VBZ
homer-odyssey-850_23	26	23	been	be	VBN
homer-odyssey-850_23	26	24	born	bear	VBN
homer-odyssey-850_23	26	25	to	to	IN
homer-odyssey-850_23	26	26	both	both	DT
homer-odyssey-850_23	26	27	of	of	IN
homer-odyssey-850_23	26	28	us	-PRON-	PRP
homer-odyssey-850_23	26	29	;	;	:
homer-odyssey-850_23	26	30	but	but	CC
homer-odyssey-850_23	26	31	what	what	WP
homer-odyssey-850_23	26	32	you	-PRON-	PRP
homer-odyssey-850_23	26	33	tell	tell	VBP
homer-odyssey-850_23	26	34	me	-PRON-	PRP
homer-odyssey-850_23	26	35	can	can	MD
homer-odyssey-850_23	26	36	not	not	RB
homer-odyssey-850_23	26	37	be	be	VB
homer-odyssey-850_23	26	38	really	really	RB
homer-odyssey-850_23	26	39	true	true	JJ
homer-odyssey-850_23	26	40	.	.	.
homer-odyssey-850_23	27	1	It	-PRON-	PRP
homer-odyssey-850_23	27	2	is	be	VBZ
homer-odyssey-850_23	27	3	some	some	DT
homer-odyssey-850_23	27	4	god	god	NN
homer-odyssey-850_23	27	5	who	who	WP
homer-odyssey-850_23	27	6	is	be	VBZ
homer-odyssey-850_23	27	7	angry	angry	JJ
homer-odyssey-850_23	27	8	with	with	IN
homer-odyssey-850_23	27	9	the	the	DT
homer-odyssey-850_23	27	10	suitors	suitor	NNS
homer-odyssey-850_23	27	11	for	for	IN
homer-odyssey-850_23	27	12	their	-PRON-	PRP$
homer-odyssey-850_23	27	13	great	great	JJ
homer-odyssey-850_23	27	14	wickedness	wickedness	NN
homer-odyssey-850_23	27	15	,	,	,
homer-odyssey-850_23	27	16	and	and	CC
homer-odyssey-850_23	27	17	has	have	VBZ
homer-odyssey-850_23	27	18	made	make	VBN
homer-odyssey-850_23	27	19	an	an	DT
homer-odyssey-850_23	27	20	end	end	NN
homer-odyssey-850_23	27	21	of	of	IN
homer-odyssey-850_23	27	22	them	-PRON-	PRP
homer-odyssey-850_23	27	23	;	;	:
homer-odyssey-850_23	27	24	for	for	IN
homer-odyssey-850_23	27	25	they	-PRON-	PRP
homer-odyssey-850_23	27	26	respected	respect	VBD
homer-odyssey-850_23	27	27	no	no	DT
homer-odyssey-850_23	27	28	man	man	NN
homer-odyssey-850_23	27	29	in	in	IN
homer-odyssey-850_23	27	30	the	the	DT
homer-odyssey-850_23	27	31	whole	whole	JJ
homer-odyssey-850_23	27	32	world	world	NN
homer-odyssey-850_23	27	33	,	,	,
homer-odyssey-850_23	27	34	neither	neither	CC
homer-odyssey-850_23	27	35	rich	rich	JJ
homer-odyssey-850_23	27	36	nor	nor	CC
homer-odyssey-850_23	27	37	poor	poor	JJ
homer-odyssey-850_23	27	38	,	,	,
homer-odyssey-850_23	27	39	who	who	WP
homer-odyssey-850_23	27	40	came	come	VBD
homer-odyssey-850_23	27	41	near	near	IN
homer-odyssey-850_23	27	42	them	-PRON-	PRP
homer-odyssey-850_23	27	43	,	,	,
homer-odyssey-850_23	27	44	and	and	CC
homer-odyssey-850_23	27	45	they	-PRON-	PRP
homer-odyssey-850_23	27	46	have	have	VBP
homer-odyssey-850_23	27	47	come	come	VBN
homer-odyssey-850_23	27	48	to	to	IN
homer-odyssey-850_23	27	49	a	a	DT
homer-odyssey-850_23	27	50	bad	bad	JJ
homer-odyssey-850_23	27	51	end	end	NN
homer-odyssey-850_23	27	52	in	in	IN
homer-odyssey-850_23	27	53	consequence	consequence	NN
homer-odyssey-850_23	27	54	of	of	IN
homer-odyssey-850_23	27	55	their	-PRON-	PRP$
homer-odyssey-850_23	27	56	iniquity	iniquity	NN
homer-odyssey-850_23	27	57	;	;	:
homer-odyssey-850_23	27	58	Ulysses	ulyss	NNS
homer-odyssey-850_23	27	59	is	be	VBZ
homer-odyssey-850_23	27	60	dead	dead	JJ
homer-odyssey-850_23	27	61	far	far	RB
homer-odyssey-850_23	27	62	away	away	RB
homer-odyssey-850_23	27	63	from	from	IN
homer-odyssey-850_23	27	64	the	the	DT
homer-odyssey-850_23	27	65	Achaean	achaean	JJ
homer-odyssey-850_23	27	66	land	land	NN
homer-odyssey-850_23	27	67	;	;	:
homer-odyssey-850_23	27	68	he	-PRON-	PRP
homer-odyssey-850_23	27	69	will	will	MD
homer-odyssey-850_23	27	70	never	never	RB
homer-odyssey-850_23	27	71	return	return	VB
homer-odyssey-850_23	27	72	home	home	RB
homer-odyssey-850_23	27	73	again	again	RB
homer-odyssey-850_23	27	74	.	.	.
homer-odyssey-850_23	27	75	"	"	''
homer-odyssey-850_23	28	1	Then	then	RB
homer-odyssey-850_23	28	2	nurse	nurse	NN
homer-odyssey-850_23	28	3	Euryclea	euryclea	NNP
homer-odyssey-850_23	28	4	said	say	VBD
homer-odyssey-850_23	28	5	,	,	,
homer-odyssey-850_23	28	6	"	"	``
homer-odyssey-850_23	28	7	My	-PRON-	PRP$
homer-odyssey-850_23	28	8	child	child	NN
homer-odyssey-850_23	28	9	,	,	,
homer-odyssey-850_23	28	10	what	what	WP
homer-odyssey-850_23	28	11	are	be	VBP
homer-odyssey-850_23	28	12	you	-PRON-	PRP
homer-odyssey-850_23	28	13	talking	talk	VBG
homer-odyssey-850_23	28	14	about	about	IN
homer-odyssey-850_23	28	15	?	?	.
homer-odyssey-850_23	29	1	but	but	CC
homer-odyssey-850_23	29	2	you	-PRON-	PRP
homer-odyssey-850_23	29	3	were	be	VBD
homer-odyssey-850_23	29	4	all	all	RB
homer-odyssey-850_23	29	5	hard	hard	JJ
homer-odyssey-850_23	29	6	of	of	IN
homer-odyssey-850_23	29	7	belief	belief	NN
homer-odyssey-850_23	29	8	and	and	CC
homer-odyssey-850_23	29	9	have	have	VBP
homer-odyssey-850_23	29	10	made	make	VBN
homer-odyssey-850_23	29	11	up	up	RP
homer-odyssey-850_23	29	12	your	-PRON-	PRP$
homer-odyssey-850_23	29	13	mind	mind	NN
homer-odyssey-850_23	29	14	that	that	IN
homer-odyssey-850_23	29	15	your	-PRON-	PRP$
homer-odyssey-850_23	29	16	husband	husband	NN
homer-odyssey-850_23	29	17	is	be	VBZ
homer-odyssey-850_23	29	18	never	never	RB
homer-odyssey-850_23	29	19	coming	come	VBG
homer-odyssey-850_23	29	20	,	,	,
homer-odyssey-850_23	29	21	although	although	IN
homer-odyssey-850_23	29	22	he	-PRON-	PRP
homer-odyssey-850_23	29	23	is	be	VBZ
homer-odyssey-850_23	29	24	in	in	IN
homer-odyssey-850_23	29	25	the	the	DT
homer-odyssey-850_23	29	26	house	house	NN
homer-odyssey-850_23	29	27	and	and	CC
homer-odyssey-850_23	29	28	by	by	IN
homer-odyssey-850_23	29	29	his	-PRON-	PRP$
homer-odyssey-850_23	29	30	own	own	JJ
homer-odyssey-850_23	29	31	fire	fire	NN
homer-odyssey-850_23	29	32	side	side	NN
homer-odyssey-850_23	29	33	at	at	IN
homer-odyssey-850_23	29	34	this	this	DT
homer-odyssey-850_23	29	35	very	very	JJ
homer-odyssey-850_23	29	36	moment	moment	NN
homer-odyssey-850_23	29	37	.	.	.
homer-odyssey-850_23	30	1	Besides	besides	IN
homer-odyssey-850_23	30	2	I	-PRON-	PRP
homer-odyssey-850_23	30	3	can	can	MD
homer-odyssey-850_23	30	4	give	give	VB
homer-odyssey-850_23	30	5	you	-PRON-	PRP
homer-odyssey-850_23	30	6	another	another	DT
homer-odyssey-850_23	30	7	proof	proof	NN
homer-odyssey-850_23	30	8	;	;	:
homer-odyssey-850_23	30	9	when	when	WRB
homer-odyssey-850_23	30	10	I	-PRON-	PRP
homer-odyssey-850_23	30	11	was	be	VBD
homer-odyssey-850_23	30	12	washing	wash	VBG
homer-odyssey-850_23	30	13	him	-PRON-	PRP
homer-odyssey-850_23	30	14	I	-PRON-	PRP
homer-odyssey-850_23	30	15	perceived	perceive	VBD
homer-odyssey-850_23	30	16	the	the	DT
homer-odyssey-850_23	30	17	scar	scar	NN
homer-odyssey-850_23	30	18	which	which	WDT
homer-odyssey-850_23	30	19	the	the	DT
homer-odyssey-850_23	30	20	wild	wild	JJ
homer-odyssey-850_23	30	21	boar	boar	NN
homer-odyssey-850_23	30	22	gave	give	VBD
homer-odyssey-850_23	30	23	him	-PRON-	PRP
homer-odyssey-850_23	30	24	,	,	,
homer-odyssey-850_23	30	25	and	and	CC
homer-odyssey-850_23	30	26	I	-PRON-	PRP
homer-odyssey-850_23	30	27	wanted	want	VBD
homer-odyssey-850_23	30	28	to	to	TO
homer-odyssey-850_23	30	29	tell	tell	VB
homer-odyssey-850_23	30	30	you	-PRON-	PRP
homer-odyssey-850_23	30	31	about	about	IN
homer-odyssey-850_23	30	32	it	-PRON-	PRP
homer-odyssey-850_23	30	33	,	,	,
homer-odyssey-850_23	30	34	but	but	CC
homer-odyssey-850_23	30	35	in	in	IN
homer-odyssey-850_23	30	36	his	-PRON-	PRP$
homer-odyssey-850_23	30	37	wisdom	wisdom	NN
homer-odyssey-850_23	30	38	he	-PRON-	PRP
homer-odyssey-850_23	30	39	would	would	MD
homer-odyssey-850_23	30	40	not	not	RB
homer-odyssey-850_23	30	41	let	let	VB
homer-odyssey-850_23	30	42	me	-PRON-	PRP
homer-odyssey-850_23	30	43	,	,	,
homer-odyssey-850_23	30	44	and	and	CC
homer-odyssey-850_23	30	45	clapped	clap	VBD
homer-odyssey-850_23	30	46	his	-PRON-	PRP$
homer-odyssey-850_23	30	47	hands	hand	NNS
homer-odyssey-850_23	30	48	over	over	IN
homer-odyssey-850_23	30	49	my	-PRON-	PRP$
homer-odyssey-850_23	30	50	mouth	mouth	NN
homer-odyssey-850_23	30	51	;	;	:
homer-odyssey-850_23	30	52	so	so	RB
homer-odyssey-850_23	30	53	come	come	VB
homer-odyssey-850_23	30	54	with	with	IN
homer-odyssey-850_23	30	55	me	-PRON-	PRP
homer-odyssey-850_23	30	56	and	and	CC
homer-odyssey-850_23	30	57	I	-PRON-	PRP
homer-odyssey-850_23	30	58	will	will	MD
homer-odyssey-850_23	30	59	make	make	VB
homer-odyssey-850_23	30	60	this	this	DT
homer-odyssey-850_23	30	61	bargain	bargain	NN
homer-odyssey-850_23	30	62	with	with	IN
homer-odyssey-850_23	30	63	you--	you--	PRP
homer-odyssey-850_23	30	64	if	if	IN
homer-odyssey-850_23	30	65	I	-PRON-	PRP
homer-odyssey-850_23	30	66	am	be	VBP
homer-odyssey-850_23	30	67	deceiving	deceive	VBG
homer-odyssey-850_23	30	68	you	-PRON-	PRP
homer-odyssey-850_23	30	69	,	,	,
homer-odyssey-850_23	30	70	you	-PRON-	PRP
homer-odyssey-850_23	30	71	may	may	MD
homer-odyssey-850_23	30	72	have	have	VB
homer-odyssey-850_23	30	73	me	-PRON-	PRP
homer-odyssey-850_23	30	74	killed	kill	VBN
homer-odyssey-850_23	30	75	by	by	IN
homer-odyssey-850_23	30	76	the	the	DT
homer-odyssey-850_23	30	77	most	most	RBS
homer-odyssey-850_23	30	78	cruel	cruel	JJ
homer-odyssey-850_23	30	79	death	death	NN
homer-odyssey-850_23	30	80	you	-PRON-	PRP
homer-odyssey-850_23	30	81	can	can	MD
homer-odyssey-850_23	30	82	think	think	VB
homer-odyssey-850_23	30	83	of	of	IN
homer-odyssey-850_23	30	84	.	.	.
homer-odyssey-850_23	30	85	"	"	''
homer-odyssey-850_23	31	1	"	"	``
homer-odyssey-850_23	31	2	My	-PRON-	PRP$
homer-odyssey-850_23	31	3	dear	dear	JJ
homer-odyssey-850_23	31	4	nurse	nurse	NN
homer-odyssey-850_23	31	5	,	,	,
homer-odyssey-850_23	31	6	"	"	''
homer-odyssey-850_23	31	7	said	say	VBD
homer-odyssey-850_23	31	8	Penelope	penelope	NNP
homer-odyssey-850_23	31	9	,	,	,
homer-odyssey-850_23	31	10	"	"	``
homer-odyssey-850_23	31	11	however	however	RB
homer-odyssey-850_23	31	12	wise	wise	JJ
homer-odyssey-850_23	31	13	you	-PRON-	PRP
homer-odyssey-850_23	31	14	may	may	MD
homer-odyssey-850_23	31	15	be	be	VB
homer-odyssey-850_23	31	16	you	-PRON-	PRP
homer-odyssey-850_23	31	17	can	can	MD
homer-odyssey-850_23	31	18	hardly	hardly	RB
homer-odyssey-850_23	31	19	fathom	fathom	VB
homer-odyssey-850_23	31	20	the	the	DT
homer-odyssey-850_23	31	21	counsels	counsel	NNS
homer-odyssey-850_23	31	22	of	of	IN
homer-odyssey-850_23	31	23	the	the	DT
homer-odyssey-850_23	31	24	gods	god	NNS
homer-odyssey-850_23	31	25	.	.	.
homer-odyssey-850_23	32	1	Nevertheless	nevertheless	RB
homer-odyssey-850_23	32	2	,	,	,
homer-odyssey-850_23	32	3	we	-PRON-	PRP
homer-odyssey-850_23	32	4	will	will	MD
homer-odyssey-850_23	32	5	go	go	VB
homer-odyssey-850_23	32	6	in	in	IN
homer-odyssey-850_23	32	7	search	search	NN
homer-odyssey-850_23	32	8	of	of	IN
homer-odyssey-850_23	32	9	my	-PRON-	PRP$
homer-odyssey-850_23	32	10	son	son	NN
homer-odyssey-850_23	32	11	,	,	,
homer-odyssey-850_23	32	12	that	that	IN
homer-odyssey-850_23	32	13	I	-PRON-	PRP
homer-odyssey-850_23	32	14	may	may	MD
homer-odyssey-850_23	32	15	see	see	VB
homer-odyssey-850_23	32	16	the	the	DT
homer-odyssey-850_23	32	17	corpses	corps	NNS
homer-odyssey-850_23	32	18	of	of	IN
homer-odyssey-850_23	32	19	the	the	DT
homer-odyssey-850_23	32	20	suitors	suitor	NNS
homer-odyssey-850_23	32	21	,	,	,
homer-odyssey-850_23	32	22	and	and	CC
homer-odyssey-850_23	32	23	the	the	DT
homer-odyssey-850_23	32	24	man	man	NN
homer-odyssey-850_23	32	25	who	who	WP
homer-odyssey-850_23	32	26	has	have	VBZ
homer-odyssey-850_23	32	27	killed	kill	VBN
homer-odyssey-850_23	32	28	them	-PRON-	PRP
homer-odyssey-850_23	32	29	.	.	.
homer-odyssey-850_23	32	30	"	"	''
homer-odyssey-850_23	33	1	On	on	IN
homer-odyssey-850_23	33	2	this	this	DT
homer-odyssey-850_23	33	3	she	-PRON-	PRP
homer-odyssey-850_23	33	4	came	come	VBD
homer-odyssey-850_23	33	5	down	down	RP
homer-odyssey-850_23	33	6	from	from	IN
homer-odyssey-850_23	33	7	her	-PRON-	PRP$
homer-odyssey-850_23	33	8	upper	upper	JJ
homer-odyssey-850_23	33	9	room	room	NN
homer-odyssey-850_23	33	10	,	,	,
homer-odyssey-850_23	33	11	and	and	CC
homer-odyssey-850_23	33	12	while	while	IN
homer-odyssey-850_23	33	13	doing	do	VBG
homer-odyssey-850_23	33	14	so	so	RB
homer-odyssey-850_23	33	15	she	-PRON-	PRP
homer-odyssey-850_23	33	16	considered	consider	VBD
homer-odyssey-850_23	33	17	whether	whether	IN
homer-odyssey-850_23	33	18	she	-PRON-	PRP
homer-odyssey-850_23	33	19	should	should	MD
homer-odyssey-850_23	33	20	keep	keep	VB
homer-odyssey-850_23	33	21	at	at	IN
homer-odyssey-850_23	33	22	a	a	DT
homer-odyssey-850_23	33	23	distance	distance	NN
homer-odyssey-850_23	33	24	from	from	IN
homer-odyssey-850_23	33	25	her	-PRON-	PRP$
homer-odyssey-850_23	33	26	husband	husband	NN
homer-odyssey-850_23	33	27	and	and	CC
homer-odyssey-850_23	33	28	question	question	VBP
homer-odyssey-850_23	33	29	him	-PRON-	PRP
homer-odyssey-850_23	33	30	,	,	,
homer-odyssey-850_23	33	31	or	or	CC
homer-odyssey-850_23	33	32	whether	whether	IN
homer-odyssey-850_23	33	33	she	-PRON-	PRP
homer-odyssey-850_23	33	34	should	should	MD
homer-odyssey-850_23	33	35	at	at	IN
homer-odyssey-850_23	33	36	once	once	RB
homer-odyssey-850_23	33	37	go	go	VB
homer-odyssey-850_23	33	38	up	up	RP
homer-odyssey-850_23	33	39	to	to	IN
homer-odyssey-850_23	33	40	him	-PRON-	PRP
homer-odyssey-850_23	33	41	and	and	CC
homer-odyssey-850_23	33	42	embrace	embrace	VB
homer-odyssey-850_23	33	43	him	-PRON-	PRP
homer-odyssey-850_23	33	44	.	.	.
homer-odyssey-850_23	34	1	When	when	WRB
homer-odyssey-850_23	34	2	,	,	,
homer-odyssey-850_23	34	3	however	however	RB
homer-odyssey-850_23	34	4	,	,	,
homer-odyssey-850_23	34	5	she	-PRON-	PRP
homer-odyssey-850_23	34	6	had	have	VBD
homer-odyssey-850_23	34	7	crossed	cross	VBN
homer-odyssey-850_23	34	8	the	the	DT
homer-odyssey-850_23	34	9	stone	stone	NN
homer-odyssey-850_23	34	10	floor	floor	NN
homer-odyssey-850_23	34	11	of	of	IN
homer-odyssey-850_23	34	12	the	the	DT
homer-odyssey-850_23	34	13	cloister	cloister	NN
homer-odyssey-850_23	34	14	,	,	,
homer-odyssey-850_23	34	15	she	-PRON-	PRP
homer-odyssey-850_23	34	16	sat	sit	VBD
homer-odyssey-850_23	34	17	down	down	RP
homer-odyssey-850_23	34	18	opposite	opposite	JJ
homer-odyssey-850_23	34	19	Ulysses	ulyss	NNS
homer-odyssey-850_23	34	20	by	by	IN
homer-odyssey-850_23	34	21	the	the	DT
homer-odyssey-850_23	34	22	fire	fire	NN
homer-odyssey-850_23	34	23	,	,	,
homer-odyssey-850_23	34	24	against	against	IN
homer-odyssey-850_23	34	25	the	the	DT
homer-odyssey-850_23	34	26	wall	wall	NN
homer-odyssey-850_23	34	27	at	at	IN
homer-odyssey-850_23	34	28	right	right	JJ
homer-odyssey-850_23	34	29	angles	angle	NNS
homer-odyssey-850_23	34	30	{	{	-LRB-
homer-odyssey-850_23	34	31	180	180	CD
homer-odyssey-850_23	34	32	}	}	-RRB-
homer-odyssey-850_23	34	33	[	[	-LRB-
homer-odyssey-850_23	34	34	to	to	IN
homer-odyssey-850_23	34	35	that	that	DT
homer-odyssey-850_23	34	36	by	by	IN
homer-odyssey-850_23	34	37	which	which	WDT
homer-odyssey-850_23	34	38	she	-PRON-	PRP
homer-odyssey-850_23	34	39	had	have	VBD
homer-odyssey-850_23	34	40	entered	enter	VBN
homer-odyssey-850_23	34	41	]	]	-RRB-
homer-odyssey-850_23	34	42	,	,	,
homer-odyssey-850_23	34	43	while	while	IN
homer-odyssey-850_23	34	44	Ulysses	ulyss	NNS
homer-odyssey-850_23	34	45	sat	sit	VBD
homer-odyssey-850_23	34	46	near	near	IN
homer-odyssey-850_23	34	47	one	one	CD
homer-odyssey-850_23	34	48	of	of	IN
homer-odyssey-850_23	34	49	the	the	DT
homer-odyssey-850_23	34	50	bearing-	bearing-	JJ
homer-odyssey-850_23	34	51	posts	post	NNS
homer-odyssey-850_23	34	52	,	,	,
homer-odyssey-850_23	34	53	looking	look	VBG
homer-odyssey-850_23	34	54	upon	upon	IN
homer-odyssey-850_23	34	55	the	the	DT
homer-odyssey-850_23	34	56	ground	ground	NN
homer-odyssey-850_23	34	57	,	,	,
homer-odyssey-850_23	34	58	and	and	CC
homer-odyssey-850_23	34	59	waiting	wait	VBG
homer-odyssey-850_23	34	60	to	to	TO
homer-odyssey-850_23	34	61	see	see	VB
homer-odyssey-850_23	34	62	what	what	WP
homer-odyssey-850_23	34	63	his	-PRON-	PRP$
homer-odyssey-850_23	34	64	brave	brave	JJ
homer-odyssey-850_23	34	65	wife	wife	NN
homer-odyssey-850_23	34	66	would	would	MD
homer-odyssey-850_23	34	67	say	say	VB
homer-odyssey-850_23	34	68	to	to	IN
homer-odyssey-850_23	34	69	him	-PRON-	PRP
homer-odyssey-850_23	34	70	when	when	WRB
homer-odyssey-850_23	34	71	she	-PRON-	PRP
homer-odyssey-850_23	34	72	saw	see	VBD
homer-odyssey-850_23	34	73	him	-PRON-	PRP
homer-odyssey-850_23	34	74	.	.	.
homer-odyssey-850_23	35	1	For	for	IN
homer-odyssey-850_23	35	2	a	a	DT
homer-odyssey-850_23	35	3	long	long	JJ
homer-odyssey-850_23	35	4	time	time	NN
homer-odyssey-850_23	35	5	she	-PRON-	PRP
homer-odyssey-850_23	35	6	sat	sit	VBD
homer-odyssey-850_23	35	7	silent	silent	JJ
homer-odyssey-850_23	35	8	and	and	CC
homer-odyssey-850_23	35	9	as	as	IN
homer-odyssey-850_23	35	10	one	one	CD
homer-odyssey-850_23	35	11	lost	lose	VBN
homer-odyssey-850_23	35	12	in	in	IN
homer-odyssey-850_23	35	13	amazement	amazement	NN
homer-odyssey-850_23	35	14	.	.	.
homer-odyssey-850_23	36	1	At	at	IN
homer-odyssey-850_23	36	2	one	one	CD
homer-odyssey-850_23	36	3	moment	moment	NN
homer-odyssey-850_23	36	4	she	-PRON-	PRP
homer-odyssey-850_23	36	5	looked	look	VBD
homer-odyssey-850_23	36	6	him	-PRON-	PRP
homer-odyssey-850_23	36	7	full	full	JJ
homer-odyssey-850_23	36	8	in	in	IN
homer-odyssey-850_23	36	9	the	the	DT
homer-odyssey-850_23	36	10	face	face	NN
homer-odyssey-850_23	36	11	,	,	,
homer-odyssey-850_23	36	12	but	but	CC
homer-odyssey-850_23	36	13	then	then	RB
homer-odyssey-850_23	36	14	again	again	RB
homer-odyssey-850_23	36	15	directly	directly	RB
homer-odyssey-850_23	36	16	,	,	,
homer-odyssey-850_23	36	17	she	-PRON-	PRP
homer-odyssey-850_23	36	18	was	be	VBD
homer-odyssey-850_23	36	19	misled	mislead	VBN
homer-odyssey-850_23	36	20	by	by	IN
homer-odyssey-850_23	36	21	his	-PRON-	PRP$
homer-odyssey-850_23	36	22	shabby	shabby	JJ
homer-odyssey-850_23	36	23	clothes	clothe	NNS
homer-odyssey-850_23	36	24	and	and	CC
homer-odyssey-850_23	36	25	failed	fail	VBD
homer-odyssey-850_23	36	26	to	to	TO
homer-odyssey-850_23	36	27	recognise	recognise	VB
homer-odyssey-850_23	36	28	him	-PRON-	PRP
homer-odyssey-850_23	36	29	,	,	,
homer-odyssey-850_23	36	30	{	{	-LRB-
homer-odyssey-850_23	36	31	181	181	CD
homer-odyssey-850_23	36	32	}	}	-RRB-
homer-odyssey-850_23	36	33	till	till	IN
homer-odyssey-850_23	36	34	Telemachus	telemachus	NNP
homer-odyssey-850_23	36	35	began	begin	VBD
homer-odyssey-850_23	36	36	to	to	TO
homer-odyssey-850_23	36	37	reproach	reproach	VB
homer-odyssey-850_23	36	38	her	-PRON-	PRP
homer-odyssey-850_23	36	39	and	and	CC
homer-odyssey-850_23	36	40	said	say	VBD
homer-odyssey-850_23	36	41	:	:	:
homer-odyssey-850_23	36	42	"	"	``
homer-odyssey-850_23	36	43	Mother--	mother--	NN
homer-odyssey-850_23	36	44	but	but	CC
homer-odyssey-850_23	36	45	you	-PRON-	PRP
homer-odyssey-850_23	36	46	are	be	VBP
homer-odyssey-850_23	36	47	so	so	RB
homer-odyssey-850_23	36	48	hard	hard	JJ
homer-odyssey-850_23	36	49	that	that	IN
homer-odyssey-850_23	36	50	I	-PRON-	PRP
homer-odyssey-850_23	36	51	can	can	MD
homer-odyssey-850_23	36	52	not	not	RB
homer-odyssey-850_23	36	53	call	call	VB
homer-odyssey-850_23	36	54	you	-PRON-	PRP
homer-odyssey-850_23	36	55	by	by	IN
homer-odyssey-850_23	36	56	such	such	PDT
homer-odyssey-850_23	36	57	a	a	DT
homer-odyssey-850_23	36	58	name--	name--	UH
homer-odyssey-850_23	36	59	why	why	WRB
homer-odyssey-850_23	36	60	do	do	VBP
homer-odyssey-850_23	36	61	you	-PRON-	PRP
homer-odyssey-850_23	36	62	keep	keep	VB
homer-odyssey-850_23	36	63	away	away	RB
homer-odyssey-850_23	36	64	from	from	IN
homer-odyssey-850_23	36	65	my	-PRON-	PRP$
homer-odyssey-850_23	36	66	father	father	NN
homer-odyssey-850_23	36	67	in	in	IN
homer-odyssey-850_23	36	68	this	this	DT
homer-odyssey-850_23	36	69	way	way	NN
homer-odyssey-850_23	36	70	?	?	.
homer-odyssey-850_23	37	1	Why	why	WRB
homer-odyssey-850_23	37	2	do	do	VBP
homer-odyssey-850_23	37	3	you	-PRON-	PRP
homer-odyssey-850_23	37	4	not	not	RB
homer-odyssey-850_23	37	5	sit	sit	VB
homer-odyssey-850_23	37	6	by	by	IN
homer-odyssey-850_23	37	7	his	-PRON-	PRP$
homer-odyssey-850_23	37	8	side	side	NN
homer-odyssey-850_23	37	9	and	and	CC
homer-odyssey-850_23	37	10	begin	begin	VB
homer-odyssey-850_23	37	11	talking	talk	VBG
homer-odyssey-850_23	37	12	to	to	IN
homer-odyssey-850_23	37	13	him	-PRON-	PRP
homer-odyssey-850_23	37	14	and	and	CC
homer-odyssey-850_23	37	15	asking	ask	VBG
homer-odyssey-850_23	37	16	him	-PRON-	PRP
homer-odyssey-850_23	37	17	questions	question	NNS
homer-odyssey-850_23	37	18	?	?	.
homer-odyssey-850_23	38	1	No	no	DT
homer-odyssey-850_23	38	2	other	other	JJ
homer-odyssey-850_23	38	3	woman	woman	NN
homer-odyssey-850_23	38	4	could	could	MD
homer-odyssey-850_23	38	5	bear	bear	VB
homer-odyssey-850_23	38	6	to	to	TO
homer-odyssey-850_23	38	7	keep	keep	VB
homer-odyssey-850_23	38	8	away	away	RB
homer-odyssey-850_23	38	9	from	from	IN
homer-odyssey-850_23	38	10	her	-PRON-	PRP$
homer-odyssey-850_23	38	11	husband	husband	NN
homer-odyssey-850_23	38	12	when	when	WRB
homer-odyssey-850_23	38	13	he	-PRON-	PRP
homer-odyssey-850_23	38	14	had	have	VBD
homer-odyssey-850_23	38	15	come	come	VBN
homer-odyssey-850_23	38	16	back	back	RB
homer-odyssey-850_23	38	17	to	to	IN
homer-odyssey-850_23	38	18	her	-PRON-	PRP
homer-odyssey-850_23	38	19	after	after	IN
homer-odyssey-850_23	38	20	twenty	twenty	CD
homer-odyssey-850_23	38	21	years	year	NNS
homer-odyssey-850_23	38	22	of	of	IN
homer-odyssey-850_23	38	23	absence	absence	NN
homer-odyssey-850_23	38	24	,	,	,
homer-odyssey-850_23	38	25	and	and	CC
homer-odyssey-850_23	38	26	after	after	IN
homer-odyssey-850_23	38	27	having	have	VBG
homer-odyssey-850_23	38	28	gone	go	VBN
homer-odyssey-850_23	38	29	through	through	RB
homer-odyssey-850_23	38	30	so	so	RB
homer-odyssey-850_23	38	31	much	much	JJ
homer-odyssey-850_23	38	32	;	;	:
homer-odyssey-850_23	38	33	but	but	CC
homer-odyssey-850_23	38	34	your	-PRON-	PRP$
homer-odyssey-850_23	38	35	heart	heart	NN
homer-odyssey-850_23	38	36	always	always	RB
homer-odyssey-850_23	38	37	was	be	VBD
homer-odyssey-850_23	38	38	as	as	RB
homer-odyssey-850_23	38	39	hard	hard	JJ
homer-odyssey-850_23	38	40	as	as	IN
homer-odyssey-850_23	38	41	a	a	DT
homer-odyssey-850_23	38	42	stone	stone	NN
homer-odyssey-850_23	38	43	.	.	.
homer-odyssey-850_23	38	44	"	"	''
homer-odyssey-850_23	39	1	Penelope	penelope	NNP
homer-odyssey-850_23	39	2	answered	answer	VBD
homer-odyssey-850_23	39	3	,	,	,
homer-odyssey-850_23	39	4	"	"	``
homer-odyssey-850_23	39	5	My	-PRON-	PRP$
homer-odyssey-850_23	39	6	son	son	NN
homer-odyssey-850_23	39	7	,	,	,
homer-odyssey-850_23	39	8	I	-PRON-	PRP
homer-odyssey-850_23	39	9	am	be	VBP
homer-odyssey-850_23	39	10	so	so	RB
homer-odyssey-850_23	39	11	lost	lose	VBN
homer-odyssey-850_23	39	12	in	in	IN
homer-odyssey-850_23	39	13	astonishment	astonishment	NN
homer-odyssey-850_23	39	14	that	that	IN
homer-odyssey-850_23	39	15	I	-PRON-	PRP
homer-odyssey-850_23	39	16	can	can	MD
homer-odyssey-850_23	39	17	find	find	VB
homer-odyssey-850_23	39	18	no	no	DT
homer-odyssey-850_23	39	19	words	word	NNS
homer-odyssey-850_23	39	20	in	in	IN
homer-odyssey-850_23	39	21	which	which	WDT
homer-odyssey-850_23	39	22	either	either	CC
homer-odyssey-850_23	39	23	to	to	TO
homer-odyssey-850_23	39	24	ask	ask	VB
homer-odyssey-850_23	39	25	questions	question	NNS
homer-odyssey-850_23	39	26	or	or	CC
homer-odyssey-850_23	39	27	to	to	TO
homer-odyssey-850_23	39	28	answer	answer	VB
homer-odyssey-850_23	39	29	them	-PRON-	PRP
homer-odyssey-850_23	39	30	.	.	.
homer-odyssey-850_23	40	1	I	-PRON-	PRP
homer-odyssey-850_23	40	2	can	can	MD
homer-odyssey-850_23	40	3	not	not	RB
homer-odyssey-850_23	40	4	even	even	RB
homer-odyssey-850_23	40	5	look	look	VB
homer-odyssey-850_23	40	6	him	-PRON-	PRP
homer-odyssey-850_23	40	7	straight	straight	RB
homer-odyssey-850_23	40	8	in	in	IN
homer-odyssey-850_23	40	9	the	the	DT
homer-odyssey-850_23	40	10	face	face	NN
homer-odyssey-850_23	40	11	.	.	.
homer-odyssey-850_23	41	1	Still	still	RB
homer-odyssey-850_23	41	2	,	,	,
homer-odyssey-850_23	41	3	if	if	IN
homer-odyssey-850_23	41	4	he	-PRON-	PRP
homer-odyssey-850_23	41	5	really	really	RB
homer-odyssey-850_23	41	6	is	be	VBZ
homer-odyssey-850_23	41	7	Ulysses	ulyss	NNS
homer-odyssey-850_23	41	8	come	come	VBN
homer-odyssey-850_23	41	9	back	back	RB
homer-odyssey-850_23	41	10	to	to	IN
homer-odyssey-850_23	41	11	his	-PRON-	PRP$
homer-odyssey-850_23	41	12	own	own	JJ
homer-odyssey-850_23	41	13	home	home	NN
homer-odyssey-850_23	41	14	again	again	RB
homer-odyssey-850_23	41	15	,	,	,
homer-odyssey-850_23	41	16	we	-PRON-	PRP
homer-odyssey-850_23	41	17	shall	shall	MD
homer-odyssey-850_23	41	18	get	get	VB
homer-odyssey-850_23	41	19	to	to	TO
homer-odyssey-850_23	41	20	understand	understand	VB
homer-odyssey-850_23	41	21	one	one	CD
homer-odyssey-850_23	41	22	another	another	DT
homer-odyssey-850_23	41	23	better	good	JJR
homer-odyssey-850_23	41	24	by	by	RB
homer-odyssey-850_23	41	25	and	and	CC
homer-odyssey-850_23	41	26	by	by	RB
homer-odyssey-850_23	41	27	,	,	,
homer-odyssey-850_23	41	28	for	for	IN
homer-odyssey-850_23	41	29	there	there	EX
homer-odyssey-850_23	41	30	are	be	VBP
homer-odyssey-850_23	41	31	tokens	token	NNS
homer-odyssey-850_23	41	32	with	with	IN
homer-odyssey-850_23	41	33	which	which	WDT
homer-odyssey-850_23	41	34	we	-PRON-	PRP
homer-odyssey-850_23	41	35	two	two	CD
homer-odyssey-850_23	41	36	are	be	VBP
homer-odyssey-850_23	41	37	alone	alone	RB
homer-odyssey-850_23	41	38	acquainted	acquaint	VBN
homer-odyssey-850_23	41	39	,	,	,
homer-odyssey-850_23	41	40	and	and	CC
homer-odyssey-850_23	41	41	which	which	WDT
homer-odyssey-850_23	41	42	are	be	VBP
homer-odyssey-850_23	41	43	hidden	hide	VBN
homer-odyssey-850_23	41	44	from	from	IN
homer-odyssey-850_23	41	45	all	all	DT
homer-odyssey-850_23	41	46	others	other	NNS
homer-odyssey-850_23	41	47	.	.	.
homer-odyssey-850_23	41	48	"	"	''
homer-odyssey-850_23	42	1	Ulysses	ulyss	NNS
homer-odyssey-850_23	42	2	smiled	smile	VBD
homer-odyssey-850_23	42	3	at	at	IN
homer-odyssey-850_23	42	4	this	this	DT
homer-odyssey-850_23	42	5	,	,	,
homer-odyssey-850_23	42	6	and	and	CC
homer-odyssey-850_23	42	7	said	say	VBD
homer-odyssey-850_23	42	8	to	to	IN
homer-odyssey-850_23	42	9	Telemachus	telemachus	NNP
homer-odyssey-850_23	42	10	,	,	,
homer-odyssey-850_23	42	11	"	"	''
homer-odyssey-850_23	42	12	Let	let	VB
homer-odyssey-850_23	42	13	your	-PRON-	PRP$
homer-odyssey-850_23	42	14	mother	mother	NN
homer-odyssey-850_23	42	15	put	put	VB
homer-odyssey-850_23	42	16	me	-PRON-	PRP
homer-odyssey-850_23	42	17	to	to	IN
homer-odyssey-850_23	42	18	any	any	DT
homer-odyssey-850_23	42	19	proof	proof	NN
homer-odyssey-850_23	42	20	she	-PRON-	PRP
homer-odyssey-850_23	42	21	likes	like	VBZ
homer-odyssey-850_23	42	22	;	;	:
homer-odyssey-850_23	42	23	she	-PRON-	PRP
homer-odyssey-850_23	42	24	will	will	MD
homer-odyssey-850_23	42	25	make	make	VB
homer-odyssey-850_23	42	26	up	up	RP
homer-odyssey-850_23	42	27	her	-PRON-	PRP$
homer-odyssey-850_23	42	28	mind	mind	NN
homer-odyssey-850_23	42	29	about	about	IN
homer-odyssey-850_23	42	30	it	-PRON-	PRP
homer-odyssey-850_23	42	31	presently	presently	RB
homer-odyssey-850_23	42	32	.	.	.
homer-odyssey-850_23	43	1	She	-PRON-	PRP
homer-odyssey-850_23	43	2	rejects	reject	VBZ
homer-odyssey-850_23	43	3	me	-PRON-	PRP
homer-odyssey-850_23	43	4	for	for	IN
homer-odyssey-850_23	43	5	the	the	DT
homer-odyssey-850_23	43	6	moment	moment	NN
homer-odyssey-850_23	43	7	and	and	CC
homer-odyssey-850_23	43	8	believes	believe	VBZ
homer-odyssey-850_23	43	9	me	-PRON-	PRP
homer-odyssey-850_23	43	10	to	to	TO
homer-odyssey-850_23	43	11	be	be	VB
homer-odyssey-850_23	43	12	somebody	somebody	NN
homer-odyssey-850_23	43	13	else	else	RB
homer-odyssey-850_23	43	14	,	,	,
homer-odyssey-850_23	43	15	because	because	IN
homer-odyssey-850_23	43	16	I	-PRON-	PRP
homer-odyssey-850_23	43	17	am	be	VBP
homer-odyssey-850_23	43	18	covered	cover	VBN
homer-odyssey-850_23	43	19	with	with	IN
homer-odyssey-850_23	43	20	dirt	dirt	NN
homer-odyssey-850_23	43	21	and	and	CC
homer-odyssey-850_23	43	22	have	have	VBP
homer-odyssey-850_23	43	23	such	such	JJ
homer-odyssey-850_23	43	24	bad	bad	JJ
homer-odyssey-850_23	43	25	clothes	clothe	NNS
homer-odyssey-850_23	43	26	on	on	RB
homer-odyssey-850_23	43	27	;	;	:
homer-odyssey-850_23	43	28	let	let	VB
homer-odyssey-850_23	43	29	us	-PRON-	PRP
homer-odyssey-850_23	43	30	,	,	,
homer-odyssey-850_23	43	31	however	however	RB
homer-odyssey-850_23	43	32	,	,	,
homer-odyssey-850_23	43	33	consider	consider	VB
homer-odyssey-850_23	43	34	what	what	WP
homer-odyssey-850_23	43	35	we	-PRON-	PRP
homer-odyssey-850_23	43	36	had	have	VBD
homer-odyssey-850_23	43	37	better	better	RBR
homer-odyssey-850_23	43	38	do	do	VB
homer-odyssey-850_23	43	39	next	next	RB
homer-odyssey-850_23	43	40	.	.	.
homer-odyssey-850_23	44	1	When	when	WRB
homer-odyssey-850_23	44	2	one	one	CD
homer-odyssey-850_23	44	3	man	man	NN
homer-odyssey-850_23	44	4	has	have	VBZ
homer-odyssey-850_23	44	5	killed	kill	VBN
homer-odyssey-850_23	44	6	another--	another--	NN
homer-odyssey-850_23	44	7	even	even	RB
homer-odyssey-850_23	44	8	though	though	IN
homer-odyssey-850_23	44	9	he	-PRON-	PRP
homer-odyssey-850_23	44	10	was	be	VBD
homer-odyssey-850_23	44	11	not	not	RB
homer-odyssey-850_23	44	12	one	one	CD
homer-odyssey-850_23	44	13	who	who	WP
homer-odyssey-850_23	44	14	would	would	MD
homer-odyssey-850_23	44	15	leave	leave	VB
homer-odyssey-850_23	44	16	many	many	JJ
homer-odyssey-850_23	44	17	friends	friend	NNS
homer-odyssey-850_23	44	18	to	to	TO
homer-odyssey-850_23	44	19	take	take	VB
homer-odyssey-850_23	44	20	up	up	RP
homer-odyssey-850_23	44	21	his	-PRON-	PRP$
homer-odyssey-850_23	44	22	quarrel--	quarrel--	NN
homer-odyssey-850_23	44	23	the	the	DT
homer-odyssey-850_23	44	24	man	man	NN
homer-odyssey-850_23	44	25	who	who	WP
homer-odyssey-850_23	44	26	has	have	VBZ
homer-odyssey-850_23	44	27	killed	kill	VBN
homer-odyssey-850_23	44	28	him	-PRON-	PRP
homer-odyssey-850_23	44	29	must	must	MD
homer-odyssey-850_23	44	30	still	still	RB
homer-odyssey-850_23	44	31	say	say	VB
homer-odyssey-850_23	44	32	good	good	JJ
homer-odyssey-850_23	44	33	bye	bye	UH
homer-odyssey-850_23	44	34	to	to	IN
homer-odyssey-850_23	44	35	his	-PRON-	PRP$
homer-odyssey-850_23	44	36	friends	friend	NNS
homer-odyssey-850_23	44	37	and	and	CC
homer-odyssey-850_23	44	38	fly	fly	VB
homer-odyssey-850_23	44	39	the	the	DT
homer-odyssey-850_23	44	40	country	country	NN
homer-odyssey-850_23	44	41	;	;	:
homer-odyssey-850_23	44	42	whereas	whereas	IN
homer-odyssey-850_23	44	43	we	-PRON-	PRP
homer-odyssey-850_23	44	44	have	have	VBP
homer-odyssey-850_23	44	45	been	be	VBN
homer-odyssey-850_23	44	46	killing	kill	VBG
homer-odyssey-850_23	44	47	the	the	DT
homer-odyssey-850_23	44	48	stay	stay	NN
homer-odyssey-850_23	44	49	of	of	IN
homer-odyssey-850_23	44	50	a	a	DT
homer-odyssey-850_23	44	51	whole	whole	JJ
homer-odyssey-850_23	44	52	town	town	NN
homer-odyssey-850_23	44	53	,	,	,
homer-odyssey-850_23	44	54	and	and	CC
homer-odyssey-850_23	44	55	all	all	PDT
homer-odyssey-850_23	44	56	the	the	DT
homer-odyssey-850_23	44	57	picked	picked	JJ
homer-odyssey-850_23	44	58	youth	youth	NN
homer-odyssey-850_23	44	59	of	of	IN
homer-odyssey-850_23	44	60	Ithaca	ithaca	NNP
homer-odyssey-850_23	44	61	.	.	.
homer-odyssey-850_23	45	1	I	-PRON-	PRP
homer-odyssey-850_23	45	2	would	would	MD
homer-odyssey-850_23	45	3	have	have	VB
homer-odyssey-850_23	45	4	you	-PRON-	PRP
homer-odyssey-850_23	45	5	consider	consider	VB
homer-odyssey-850_23	45	6	this	this	DT
homer-odyssey-850_23	45	7	matter	matter	NN
homer-odyssey-850_23	45	8	.	.	.
homer-odyssey-850_23	45	9	"	"	''
homer-odyssey-850_23	46	1	"	"	``
homer-odyssey-850_23	46	2	Look	look	VB
homer-odyssey-850_23	46	3	to	to	IN
homer-odyssey-850_23	46	4	it	-PRON-	PRP
homer-odyssey-850_23	46	5	yourself	-PRON-	PRP
homer-odyssey-850_23	46	6	,	,	,
homer-odyssey-850_23	46	7	father	father	NN
homer-odyssey-850_23	46	8	,	,	,
homer-odyssey-850_23	46	9	"	"	''
homer-odyssey-850_23	46	10	answered	answer	VBD
homer-odyssey-850_23	46	11	Telemachus	telemachus	NN
homer-odyssey-850_23	46	12	,	,	,
homer-odyssey-850_23	46	13	"	"	''
homer-odyssey-850_23	46	14	for	for	IN
homer-odyssey-850_23	46	15	they	-PRON-	PRP
homer-odyssey-850_23	46	16	say	say	VBP
homer-odyssey-850_23	46	17	you	-PRON-	PRP
homer-odyssey-850_23	46	18	are	be	VBP
homer-odyssey-850_23	46	19	the	the	DT
homer-odyssey-850_23	46	20	wisest	wise	JJS
homer-odyssey-850_23	46	21	counsellor	counsellor	NN
homer-odyssey-850_23	46	22	in	in	IN
homer-odyssey-850_23	46	23	the	the	DT
homer-odyssey-850_23	46	24	world	world	NN
homer-odyssey-850_23	46	25	,	,	,
homer-odyssey-850_23	46	26	and	and	CC
homer-odyssey-850_23	46	27	that	that	IN
homer-odyssey-850_23	46	28	there	there	EX
homer-odyssey-850_23	46	29	is	be	VBZ
homer-odyssey-850_23	46	30	no	no	DT
homer-odyssey-850_23	46	31	other	other	JJ
homer-odyssey-850_23	46	32	mortal	mortal	JJ
homer-odyssey-850_23	46	33	man	man	NN
homer-odyssey-850_23	46	34	who	who	WP
homer-odyssey-850_23	46	35	can	can	MD
homer-odyssey-850_23	46	36	compare	compare	VB
homer-odyssey-850_23	46	37	with	with	IN
homer-odyssey-850_23	46	38	you	-PRON-	PRP
homer-odyssey-850_23	46	39	.	.	.
homer-odyssey-850_23	47	1	We	-PRON-	PRP
homer-odyssey-850_23	47	2	will	will	MD
homer-odyssey-850_23	47	3	follow	follow	VB
homer-odyssey-850_23	47	4	you	-PRON-	PRP
homer-odyssey-850_23	47	5	with	with	IN
homer-odyssey-850_23	47	6	right	right	JJ
homer-odyssey-850_23	47	7	good	good	JJ
homer-odyssey-850_23	47	8	will	will	NN
homer-odyssey-850_23	47	9	,	,	,
homer-odyssey-850_23	47	10	nor	nor	CC
homer-odyssey-850_23	47	11	shall	shall	MD
homer-odyssey-850_23	47	12	you	-PRON-	PRP
homer-odyssey-850_23	47	13	find	find	VB
homer-odyssey-850_23	47	14	us	-PRON-	PRP
homer-odyssey-850_23	47	15	fail	fail	VB
homer-odyssey-850_23	47	16	you	-PRON-	PRP
homer-odyssey-850_23	47	17	in	in	RP
homer-odyssey-850_23	47	18	so	so	RB
homer-odyssey-850_23	47	19	far	far	RB
homer-odyssey-850_23	47	20	as	as	IN
homer-odyssey-850_23	47	21	our	-PRON-	PRP$
homer-odyssey-850_23	47	22	strength	strength	NN
homer-odyssey-850_23	47	23	holds	hold	VBZ
homer-odyssey-850_23	47	24	out	out	RP
homer-odyssey-850_23	47	25	.	.	.
homer-odyssey-850_23	47	26	"	"	''
homer-odyssey-850_23	48	1	"	"	``
homer-odyssey-850_23	48	2	I	-PRON-	PRP
homer-odyssey-850_23	48	3	will	will	MD
homer-odyssey-850_23	48	4	say	say	VB
homer-odyssey-850_23	48	5	what	what	WP
homer-odyssey-850_23	48	6	I	-PRON-	PRP
homer-odyssey-850_23	48	7	think	think	VBP
homer-odyssey-850_23	48	8	will	will	MD
homer-odyssey-850_23	48	9	be	be	VB
homer-odyssey-850_23	48	10	best	good	JJS
homer-odyssey-850_23	48	11	,	,	,
homer-odyssey-850_23	48	12	"	"	''
homer-odyssey-850_23	48	13	answered	answer	VBD
homer-odyssey-850_23	48	14	Ulysses	ulyss	NNS
homer-odyssey-850_23	48	15	.	.	.
homer-odyssey-850_23	48	16	"	"	''
homer-odyssey-850_23	49	1	First	first	JJ
homer-odyssey-850_23	49	2	wash	wash	NN
homer-odyssey-850_23	49	3	and	and	CC
homer-odyssey-850_23	49	4	put	put	VB
homer-odyssey-850_23	49	5	your	-PRON-	PRP$
homer-odyssey-850_23	49	6	shirts	shirt	NNS
homer-odyssey-850_23	49	7	on	on	RP
homer-odyssey-850_23	49	8	;	;	:
homer-odyssey-850_23	49	9	tell	tell	VB
homer-odyssey-850_23	49	10	the	the	DT
homer-odyssey-850_23	49	11	maids	maid	NNS
homer-odyssey-850_23	49	12	also	also	RB
homer-odyssey-850_23	49	13	to	to	TO
homer-odyssey-850_23	49	14	go	go	VB
homer-odyssey-850_23	49	15	to	to	IN
homer-odyssey-850_23	49	16	their	-PRON-	PRP$
homer-odyssey-850_23	49	17	own	own	JJ
homer-odyssey-850_23	49	18	room	room	NN
homer-odyssey-850_23	49	19	and	and	CC
homer-odyssey-850_23	49	20	dress	dress	NN
homer-odyssey-850_23	49	21	;	;	:
homer-odyssey-850_23	49	22	Phemius	phemius	NNP
homer-odyssey-850_23	49	23	shall	shall	MD
homer-odyssey-850_23	49	24	then	then	RB
homer-odyssey-850_23	49	25	strike	strike	VB
homer-odyssey-850_23	49	26	up	up	RP
homer-odyssey-850_23	49	27	a	a	DT
homer-odyssey-850_23	49	28	dance	dance	NN
homer-odyssey-850_23	49	29	tune	tune	NN
homer-odyssey-850_23	49	30	on	on	IN
homer-odyssey-850_23	49	31	his	-PRON-	PRP$
homer-odyssey-850_23	49	32	lyre	lyre	NN
homer-odyssey-850_23	49	33	,	,	,
homer-odyssey-850_23	49	34	so	so	IN
homer-odyssey-850_23	49	35	that	that	IN
homer-odyssey-850_23	49	36	if	if	IN
homer-odyssey-850_23	49	37	people	people	NNS
homer-odyssey-850_23	49	38	outside	outside	RB
homer-odyssey-850_23	49	39	hear	hear	VBP
homer-odyssey-850_23	49	40	,	,	,
homer-odyssey-850_23	49	41	or	or	CC
homer-odyssey-850_23	49	42	any	any	DT
homer-odyssey-850_23	49	43	of	of	IN
homer-odyssey-850_23	49	44	the	the	DT
homer-odyssey-850_23	49	45	neighbours	neighbour	NNS
homer-odyssey-850_23	49	46	,	,	,
homer-odyssey-850_23	49	47	or	or	CC
homer-odyssey-850_23	49	48	some	some	DT
homer-odyssey-850_23	49	49	one	one	NN
homer-odyssey-850_23	49	50	going	go	VBG
homer-odyssey-850_23	49	51	along	along	IN
homer-odyssey-850_23	49	52	the	the	DT
homer-odyssey-850_23	49	53	street	street	NN
homer-odyssey-850_23	49	54	happens	happen	VBZ
homer-odyssey-850_23	49	55	to	to	TO
homer-odyssey-850_23	49	56	notice	notice	VB
homer-odyssey-850_23	49	57	it	-PRON-	PRP
homer-odyssey-850_23	49	58	,	,	,
homer-odyssey-850_23	49	59	they	-PRON-	PRP
homer-odyssey-850_23	49	60	may	may	MD
homer-odyssey-850_23	49	61	think	think	VB
homer-odyssey-850_23	49	62	there	there	EX
homer-odyssey-850_23	49	63	is	be	VBZ
homer-odyssey-850_23	49	64	a	a	DT
homer-odyssey-850_23	49	65	wedding	wedding	NN
homer-odyssey-850_23	49	66	in	in	IN
homer-odyssey-850_23	49	67	the	the	DT
homer-odyssey-850_23	49	68	house	house	NN
homer-odyssey-850_23	49	69	,	,	,
homer-odyssey-850_23	49	70	and	and	CC
homer-odyssey-850_23	49	71	no	no	DT
homer-odyssey-850_23	49	72	rumours	rumour	NNS
homer-odyssey-850_23	49	73	about	about	IN
homer-odyssey-850_23	49	74	the	the	DT
homer-odyssey-850_23	49	75	death	death	NN
homer-odyssey-850_23	49	76	of	of	IN
homer-odyssey-850_23	49	77	the	the	DT
homer-odyssey-850_23	49	78	suitors	suitor	NNS
homer-odyssey-850_23	49	79	will	will	MD
homer-odyssey-850_23	49	80	get	get	VB
homer-odyssey-850_23	49	81	about	about	IN
homer-odyssey-850_23	49	82	in	in	IN
homer-odyssey-850_23	49	83	the	the	DT
homer-odyssey-850_23	49	84	town	town	NN
homer-odyssey-850_23	49	85	,	,	,
homer-odyssey-850_23	49	86	before	before	IN
homer-odyssey-850_23	49	87	we	-PRON-	PRP
homer-odyssey-850_23	49	88	can	can	MD
homer-odyssey-850_23	49	89	escape	escape	VB
homer-odyssey-850_23	49	90	to	to	IN
homer-odyssey-850_23	49	91	the	the	DT
homer-odyssey-850_23	49	92	woods	wood	NNS
homer-odyssey-850_23	49	93	upon	upon	IN
homer-odyssey-850_23	49	94	my	-PRON-	PRP$
homer-odyssey-850_23	49	95	own	own	JJ
homer-odyssey-850_23	49	96	land	land	NN
homer-odyssey-850_23	49	97	.	.	.
homer-odyssey-850_23	50	1	Once	once	RB
homer-odyssey-850_23	50	2	there	there	RB
homer-odyssey-850_23	50	3	,	,	,
homer-odyssey-850_23	50	4	we	-PRON-	PRP
homer-odyssey-850_23	50	5	will	will	MD
homer-odyssey-850_23	50	6	settle	settle	VB
homer-odyssey-850_23	50	7	which	which	WDT
homer-odyssey-850_23	50	8	of	of	IN
homer-odyssey-850_23	50	9	the	the	DT
homer-odyssey-850_23	50	10	courses	course	NNS
homer-odyssey-850_23	50	11	heaven	heaven	NNP
homer-odyssey-850_23	50	12	vouchsafes	vouchsafe	VBZ
homer-odyssey-850_23	50	13	us	-PRON-	PRP
homer-odyssey-850_23	50	14	shall	shall	MD
homer-odyssey-850_23	50	15	seem	seem	VB
homer-odyssey-850_23	50	16	wisest	wise	JJS
homer-odyssey-850_23	50	17	.	.	.
homer-odyssey-850_23	50	18	"	"	''
homer-odyssey-850_23	51	1	Thus	thus	RB
homer-odyssey-850_23	51	2	did	do	VBD
homer-odyssey-850_23	51	3	he	-PRON-	PRP
homer-odyssey-850_23	51	4	speak	speak	VB
homer-odyssey-850_23	51	5	,	,	,
homer-odyssey-850_23	51	6	and	and	CC
homer-odyssey-850_23	51	7	they	-PRON-	PRP
homer-odyssey-850_23	51	8	did	do	VBD
homer-odyssey-850_23	51	9	even	even	RB
homer-odyssey-850_23	51	10	as	as	IN
homer-odyssey-850_23	51	11	he	-PRON-	PRP
homer-odyssey-850_23	51	12	had	have	VBD
homer-odyssey-850_23	51	13	said	say	VBN
homer-odyssey-850_23	51	14	.	.	.
homer-odyssey-850_23	52	1	First	first	RB
homer-odyssey-850_23	52	2	they	-PRON-	PRP
homer-odyssey-850_23	52	3	washed	wash	VBD
homer-odyssey-850_23	52	4	and	and	CC
homer-odyssey-850_23	52	5	put	put	VBD
homer-odyssey-850_23	52	6	their	-PRON-	PRP$
homer-odyssey-850_23	52	7	shirts	shirt	NNS
homer-odyssey-850_23	52	8	on	on	RP
homer-odyssey-850_23	52	9	,	,	,
homer-odyssey-850_23	52	10	while	while	IN
homer-odyssey-850_23	52	11	the	the	DT
homer-odyssey-850_23	52	12	women	woman	NNS
homer-odyssey-850_23	52	13	got	get	VBD
homer-odyssey-850_23	52	14	ready	ready	JJ
homer-odyssey-850_23	52	15	.	.	.
homer-odyssey-850_23	53	1	Then	then	RB
homer-odyssey-850_23	53	2	Phemius	phemius	NNP
homer-odyssey-850_23	53	3	took	take	VBD
homer-odyssey-850_23	53	4	his	-PRON-	PRP$
homer-odyssey-850_23	53	5	lyre	lyre	NN
homer-odyssey-850_23	53	6	and	and	CC
homer-odyssey-850_23	53	7	set	set	VB
homer-odyssey-850_23	53	8	them	-PRON-	PRP
homer-odyssey-850_23	53	9	all	all	DT
homer-odyssey-850_23	53	10	longing	longing	NN
homer-odyssey-850_23	53	11	for	for	IN
homer-odyssey-850_23	53	12	sweet	sweet	JJ
homer-odyssey-850_23	53	13	song	song	NN
homer-odyssey-850_23	53	14	and	and	CC
homer-odyssey-850_23	53	15	stately	stately	JJ
homer-odyssey-850_23	53	16	dance	dance	NN
homer-odyssey-850_23	53	17	.	.	.
homer-odyssey-850_23	54	1	The	the	DT
homer-odyssey-850_23	54	2	house	house	NN
homer-odyssey-850_23	54	3	re-	re-	RB
homer-odyssey-850_23	54	4	echoed	echo	VBD
homer-odyssey-850_23	54	5	with	with	IN
homer-odyssey-850_23	54	6	the	the	DT
homer-odyssey-850_23	54	7	sound	sound	NN
homer-odyssey-850_23	54	8	of	of	IN
homer-odyssey-850_23	54	9	men	man	NNS
homer-odyssey-850_23	54	10	and	and	CC
homer-odyssey-850_23	54	11	women	woman	NNS
homer-odyssey-850_23	54	12	dancing	dance	VBG
homer-odyssey-850_23	54	13	,	,	,
homer-odyssey-850_23	54	14	and	and	CC
homer-odyssey-850_23	54	15	the	the	DT
homer-odyssey-850_23	54	16	people	people	NNS
homer-odyssey-850_23	54	17	outside	outside	RB
homer-odyssey-850_23	54	18	said	say	VBD
homer-odyssey-850_23	54	19	,	,	,
homer-odyssey-850_23	54	20	"	"	``
homer-odyssey-850_23	54	21	I	-PRON-	PRP
homer-odyssey-850_23	54	22	suppose	suppose	VBP
homer-odyssey-850_23	54	23	the	the	DT
homer-odyssey-850_23	54	24	queen	queen	NN
homer-odyssey-850_23	54	25	has	have	VBZ
homer-odyssey-850_23	54	26	been	be	VBN
homer-odyssey-850_23	54	27	getting	get	VBG
homer-odyssey-850_23	54	28	married	marry	VBN
homer-odyssey-850_23	54	29	at	at	IN
homer-odyssey-850_23	54	30	last	last	RB
homer-odyssey-850_23	54	31	.	.	.
homer-odyssey-850_23	55	1	She	-PRON-	PRP
homer-odyssey-850_23	55	2	ought	ought	MD
homer-odyssey-850_23	55	3	to	to	TO
homer-odyssey-850_23	55	4	be	be	VB
homer-odyssey-850_23	55	5	ashamed	ashamed	JJ
homer-odyssey-850_23	55	6	of	of	IN
homer-odyssey-850_23	55	7	herself	-PRON-	PRP
homer-odyssey-850_23	55	8	for	for	IN
homer-odyssey-850_23	55	9	not	not	RB
homer-odyssey-850_23	55	10	continuing	continue	VBG
homer-odyssey-850_23	55	11	to	to	TO
homer-odyssey-850_23	55	12	protect	protect	VB
homer-odyssey-850_23	55	13	her	-PRON-	PRP$
homer-odyssey-850_23	55	14	husband	husband	NN
homer-odyssey-850_23	55	15	's	's	POS
homer-odyssey-850_23	55	16	property	property	NN
homer-odyssey-850_23	55	17	until	until	IN
homer-odyssey-850_23	55	18	he	-PRON-	PRP
homer-odyssey-850_23	55	19	comes	come	VBZ
homer-odyssey-850_23	55	20	home	home	RB
homer-odyssey-850_23	55	21	.	.	.
homer-odyssey-850_23	56	1	"	"	``
homer-odyssey-850_23	56	2	{	{	-LRB-
homer-odyssey-850_23	56	3	182	182	CD
homer-odyssey-850_23	56	4	}	}	-RRB-
homer-odyssey-850_23	56	5	This	this	DT
homer-odyssey-850_23	56	6	was	be	VBD
homer-odyssey-850_23	56	7	what	what	WP
homer-odyssey-850_23	56	8	they	-PRON-	PRP
homer-odyssey-850_23	56	9	said	say	VBD
homer-odyssey-850_23	56	10	,	,	,
homer-odyssey-850_23	56	11	but	but	CC
homer-odyssey-850_23	56	12	they	-PRON-	PRP
homer-odyssey-850_23	56	13	did	do	VBD
homer-odyssey-850_23	56	14	not	not	RB
homer-odyssey-850_23	56	15	know	know	VB
homer-odyssey-850_23	56	16	what	what	WP
homer-odyssey-850_23	56	17	it	-PRON-	PRP
homer-odyssey-850_23	56	18	was	be	VBD
homer-odyssey-850_23	56	19	that	that	DT
homer-odyssey-850_23	56	20	had	have	VBD
homer-odyssey-850_23	56	21	been	be	VBN
homer-odyssey-850_23	56	22	happening	happen	VBG
homer-odyssey-850_23	56	23	.	.	.
homer-odyssey-850_23	57	1	The	the	DT
homer-odyssey-850_23	57	2	upper	upper	JJ
homer-odyssey-850_23	57	3	servant	servant	NN
homer-odyssey-850_23	57	4	Eurynome	eurynome	NNP
homer-odyssey-850_23	57	5	washed	wash	VBD
homer-odyssey-850_23	57	6	and	and	CC
homer-odyssey-850_23	57	7	anointed	anoint	VBD
homer-odyssey-850_23	57	8	Ulysses	ulyss	NNS
homer-odyssey-850_23	57	9	in	in	IN
homer-odyssey-850_23	57	10	his	-PRON-	PRP$
homer-odyssey-850_23	57	11	own	own	JJ
homer-odyssey-850_23	57	12	house	house	NN
homer-odyssey-850_23	57	13	and	and	CC
homer-odyssey-850_23	57	14	gave	give	VBD
homer-odyssey-850_23	57	15	him	-PRON-	PRP
homer-odyssey-850_23	57	16	a	a	DT
homer-odyssey-850_23	57	17	shirt	shirt	NN
homer-odyssey-850_23	57	18	and	and	CC
homer-odyssey-850_23	57	19	cloak	cloak	VB
homer-odyssey-850_23	57	20	,	,	,
homer-odyssey-850_23	57	21	while	while	IN
homer-odyssey-850_23	57	22	Minerva	minerva	NNP
homer-odyssey-850_23	57	23	made	make	VBD
homer-odyssey-850_23	57	24	him	-PRON-	PRP
homer-odyssey-850_23	57	25	look	look	VB
homer-odyssey-850_23	57	26	taller	tall	JJR
homer-odyssey-850_23	57	27	and	and	CC
homer-odyssey-850_23	57	28	stronger	strong	JJR
homer-odyssey-850_23	57	29	than	than	IN
homer-odyssey-850_23	57	30	before	before	RB
homer-odyssey-850_23	57	31	;	;	:
homer-odyssey-850_23	57	32	she	-PRON-	PRP
homer-odyssey-850_23	57	33	also	also	RB
homer-odyssey-850_23	57	34	made	make	VBD
homer-odyssey-850_23	57	35	the	the	DT
homer-odyssey-850_23	57	36	hair	hair	NN
homer-odyssey-850_23	57	37	grow	grow	VB
homer-odyssey-850_23	57	38	thick	thick	JJ
homer-odyssey-850_23	57	39	on	on	IN
homer-odyssey-850_23	57	40	the	the	DT
homer-odyssey-850_23	57	41	top	top	NN
homer-odyssey-850_23	57	42	of	of	IN
homer-odyssey-850_23	57	43	his	-PRON-	PRP$
homer-odyssey-850_23	57	44	head	head	NN
homer-odyssey-850_23	57	45	,	,	,
homer-odyssey-850_23	57	46	and	and	CC
homer-odyssey-850_23	57	47	flow	flow	VB
homer-odyssey-850_23	57	48	down	down	RP
homer-odyssey-850_23	57	49	in	in	IN
homer-odyssey-850_23	57	50	curls	curl	NNS
homer-odyssey-850_23	57	51	like	like	IN
homer-odyssey-850_23	57	52	hyacinth	hyacinth	JJ
homer-odyssey-850_23	57	53	blossoms	blossom	NNS
homer-odyssey-850_23	57	54	;	;	:
homer-odyssey-850_23	57	55	she	-PRON-	PRP
homer-odyssey-850_23	57	56	glorified	glorify	VBD
homer-odyssey-850_23	57	57	him	-PRON-	PRP
homer-odyssey-850_23	57	58	about	about	IN
homer-odyssey-850_23	57	59	the	the	DT
homer-odyssey-850_23	57	60	head	head	NN
homer-odyssey-850_23	57	61	and	and	CC
homer-odyssey-850_23	57	62	shoulders	shoulder	NNS
homer-odyssey-850_23	57	63	just	just	RB
homer-odyssey-850_23	57	64	as	as	IN
homer-odyssey-850_23	57	65	a	a	DT
homer-odyssey-850_23	57	66	skilful	skilful	JJ
homer-odyssey-850_23	57	67	workman	workman	NN
homer-odyssey-850_23	57	68	who	who	WP
homer-odyssey-850_23	57	69	has	have	VBZ
homer-odyssey-850_23	57	70	studied	study	VBN
homer-odyssey-850_23	57	71	art	art	NN
homer-odyssey-850_23	57	72	of	of	IN
homer-odyssey-850_23	57	73	all	all	DT
homer-odyssey-850_23	57	74	kinds	kind	NNS
homer-odyssey-850_23	57	75	under	under	IN
homer-odyssey-850_23	57	76	Vulcan	vulcan	NNP
homer-odyssey-850_23	57	77	or	or	CC
homer-odyssey-850_23	57	78	Minerva--	minerva--	VB
homer-odyssey-850_23	57	79	and	and	CC
homer-odyssey-850_23	57	80	his	-PRON-	PRP$
homer-odyssey-850_23	57	81	work	work	NN
homer-odyssey-850_23	57	82	is	be	VBZ
homer-odyssey-850_23	57	83	full	full	JJ
homer-odyssey-850_23	57	84	of	of	IN
homer-odyssey-850_23	57	85	beauty--	beauty--	NN
homer-odyssey-850_23	57	86	enriches	enrich	NNS
homer-odyssey-850_23	57	87	a	a	DT
homer-odyssey-850_23	57	88	piece	piece	NN
homer-odyssey-850_23	57	89	of	of	IN
homer-odyssey-850_23	57	90	silver	silver	JJ
homer-odyssey-850_23	57	91	plate	plate	NN
homer-odyssey-850_23	57	92	by	by	IN
homer-odyssey-850_23	57	93	gilding	gild	VBG
homer-odyssey-850_23	57	94	it	-PRON-	PRP
homer-odyssey-850_23	57	95	.	.	.
homer-odyssey-850_23	58	1	He	-PRON-	PRP
homer-odyssey-850_23	58	2	came	come	VBD
homer-odyssey-850_23	58	3	from	from	IN
homer-odyssey-850_23	58	4	the	the	DT
homer-odyssey-850_23	58	5	bath	bath	NN
homer-odyssey-850_23	58	6	looking	look	VBG
homer-odyssey-850_23	58	7	like	like	IN
homer-odyssey-850_23	58	8	one	one	CD
homer-odyssey-850_23	58	9	of	of	IN
homer-odyssey-850_23	58	10	the	the	DT
homer-odyssey-850_23	58	11	immortals	immortal	NNS
homer-odyssey-850_23	58	12	,	,	,
homer-odyssey-850_23	58	13	and	and	CC
homer-odyssey-850_23	58	14	sat	sit	VBD
homer-odyssey-850_23	58	15	down	down	RP
homer-odyssey-850_23	58	16	opposite	opposite	IN
homer-odyssey-850_23	58	17	his	-PRON-	PRP$
homer-odyssey-850_23	58	18	wife	wife	NN
homer-odyssey-850_23	58	19	on	on	IN
homer-odyssey-850_23	58	20	the	the	DT
homer-odyssey-850_23	58	21	seat	seat	NN
homer-odyssey-850_23	58	22	he	-PRON-	PRP
homer-odyssey-850_23	58	23	had	have	VBD
homer-odyssey-850_23	58	24	left	leave	VBN
homer-odyssey-850_23	58	25	.	.	.
homer-odyssey-850_23	59	1	"	"	``
homer-odyssey-850_23	59	2	My	-PRON-	PRP$
homer-odyssey-850_23	59	3	dear	dear	NN
homer-odyssey-850_23	59	4	,	,	,
homer-odyssey-850_23	59	5	"	"	''
homer-odyssey-850_23	59	6	said	say	VBD
homer-odyssey-850_23	59	7	he	-PRON-	PRP
homer-odyssey-850_23	59	8	,	,	,
homer-odyssey-850_23	59	9	"	"	``
homer-odyssey-850_23	59	10	heaven	heaven	NNP
homer-odyssey-850_23	59	11	has	have	VBZ
homer-odyssey-850_23	59	12	endowed	endow	VBN
homer-odyssey-850_23	59	13	you	-PRON-	PRP
homer-odyssey-850_23	59	14	with	with	IN
homer-odyssey-850_23	59	15	a	a	DT
homer-odyssey-850_23	59	16	heart	heart	NN
homer-odyssey-850_23	59	17	more	more	RBR
homer-odyssey-850_23	59	18	unyielding	unyielding	JJ
homer-odyssey-850_23	59	19	than	than	IN
homer-odyssey-850_23	59	20	woman	woman	NN
homer-odyssey-850_23	59	21	ever	ever	RB
homer-odyssey-850_23	59	22	yet	yet	RB
homer-odyssey-850_23	59	23	had	have	VBD
homer-odyssey-850_23	59	24	.	.	.
homer-odyssey-850_23	60	1	No	no	DT
homer-odyssey-850_23	60	2	other	other	JJ
homer-odyssey-850_23	60	3	woman	woman	NN
homer-odyssey-850_23	60	4	could	could	MD
homer-odyssey-850_23	60	5	bear	bear	VB
homer-odyssey-850_23	60	6	to	to	TO
homer-odyssey-850_23	60	7	keep	keep	VB
homer-odyssey-850_23	60	8	away	away	RB
homer-odyssey-850_23	60	9	from	from	IN
homer-odyssey-850_23	60	10	her	-PRON-	PRP$
homer-odyssey-850_23	60	11	husband	husband	NN
homer-odyssey-850_23	60	12	when	when	WRB
homer-odyssey-850_23	60	13	he	-PRON-	PRP
homer-odyssey-850_23	60	14	had	have	VBD
homer-odyssey-850_23	60	15	come	come	VBN
homer-odyssey-850_23	60	16	back	back	RB
homer-odyssey-850_23	60	17	to	to	IN
homer-odyssey-850_23	60	18	her	-PRON-	PRP
homer-odyssey-850_23	60	19	after	after	IN
homer-odyssey-850_23	60	20	twenty	twenty	CD
homer-odyssey-850_23	60	21	years	year	NNS
homer-odyssey-850_23	60	22	of	of	IN
homer-odyssey-850_23	60	23	absence	absence	NN
homer-odyssey-850_23	60	24	,	,	,
homer-odyssey-850_23	60	25	and	and	CC
homer-odyssey-850_23	60	26	after	after	IN
homer-odyssey-850_23	60	27	having	have	VBG
homer-odyssey-850_23	60	28	gone	go	VBN
homer-odyssey-850_23	60	29	through	through	RB
homer-odyssey-850_23	60	30	so	so	RB
homer-odyssey-850_23	60	31	much	much	RB
homer-odyssey-850_23	60	32	.	.	.
homer-odyssey-850_23	61	1	But	but	CC
homer-odyssey-850_23	61	2	come	come	VB
homer-odyssey-850_23	61	3	,	,	,
homer-odyssey-850_23	61	4	nurse	nurse	NN
homer-odyssey-850_23	61	5	,	,	,
homer-odyssey-850_23	61	6	get	get	VB
homer-odyssey-850_23	61	7	a	a	DT
homer-odyssey-850_23	61	8	bed	bed	NN
homer-odyssey-850_23	61	9	ready	ready	JJ
homer-odyssey-850_23	61	10	for	for	IN
homer-odyssey-850_23	61	11	me	-PRON-	PRP
homer-odyssey-850_23	61	12	;	;	:
homer-odyssey-850_23	61	13	I	-PRON-	PRP
homer-odyssey-850_23	61	14	will	will	MD
homer-odyssey-850_23	61	15	sleep	sleep	VB
homer-odyssey-850_23	61	16	alone	alone	RB
homer-odyssey-850_23	61	17	,	,	,
homer-odyssey-850_23	61	18	for	for	IN
homer-odyssey-850_23	61	19	this	this	DT
homer-odyssey-850_23	61	20	woman	woman	NN
homer-odyssey-850_23	61	21	has	have	VBZ
homer-odyssey-850_23	61	22	a	a	DT
homer-odyssey-850_23	61	23	heart	heart	NN
homer-odyssey-850_23	61	24	as	as	RB
homer-odyssey-850_23	61	25	hard	hard	RB
homer-odyssey-850_23	61	26	as	as	IN
homer-odyssey-850_23	61	27	iron	iron	NN
homer-odyssey-850_23	61	28	.	.	.
homer-odyssey-850_23	61	29	"	"	''
homer-odyssey-850_23	62	1	"	"	``
homer-odyssey-850_23	62	2	My	-PRON-	PRP$
homer-odyssey-850_23	62	3	dear	dear	NN
homer-odyssey-850_23	62	4	,	,	,
homer-odyssey-850_23	62	5	"	"	''
homer-odyssey-850_23	62	6	answered	answer	VBD
homer-odyssey-850_23	62	7	Penelope	penelope	NNP
homer-odyssey-850_23	62	8	,	,	,
homer-odyssey-850_23	62	9	"	"	``
homer-odyssey-850_23	62	10	I	-PRON-	PRP
homer-odyssey-850_23	62	11	have	have	VBP
homer-odyssey-850_23	62	12	no	no	DT
homer-odyssey-850_23	62	13	wish	wish	NN
homer-odyssey-850_23	62	14	to	to	TO
homer-odyssey-850_23	62	15	set	set	VB
homer-odyssey-850_23	62	16	myself	-PRON-	PRP
homer-odyssey-850_23	62	17	up	up	RP
homer-odyssey-850_23	62	18	,	,	,
homer-odyssey-850_23	62	19	nor	nor	CC
homer-odyssey-850_23	62	20	to	to	TO
homer-odyssey-850_23	62	21	depreciate	depreciate	VB
homer-odyssey-850_23	62	22	you	-PRON-	PRP
homer-odyssey-850_23	62	23	;	;	:
homer-odyssey-850_23	62	24	but	but	CC
homer-odyssey-850_23	62	25	I	-PRON-	PRP
homer-odyssey-850_23	62	26	am	be	VBP
homer-odyssey-850_23	62	27	not	not	RB
homer-odyssey-850_23	62	28	struck	strike	VBN
[...]
homer-odyssey-850_23	115	109	struck	strike	VBD
homer-odyssey-850_23	115	110	the	the	DT
homer-odyssey-850_23	115	111	ship	ship	NN
homer-odyssey-850_23	115	112	with	with	IN
homer-odyssey-850_23	115	113	his	-PRON-	PRP$
homer-odyssey-850_23	115	114	thunderbolts	thunderbolt	NNS
homer-odyssey-850_23	115	115	,	,	,
homer-odyssey-850_23	115	116	so	so	IN
homer-odyssey-850_23	115	117	that	that	IN
homer-odyssey-850_23	115	118	all	all	PDT
homer-odyssey-850_23	115	119	his	-PRON-	PRP$
homer-odyssey-850_23	115	120	men	man	NNS
homer-odyssey-850_23	115	121	perished	perish	VBD
homer-odyssey-850_23	115	122	together	together	RB
homer-odyssey-850_23	115	123	,	,	,
homer-odyssey-850_23	115	124	himself	-PRON-	PRP
homer-odyssey-850_23	115	125	alone	alone	RB
homer-odyssey-850_23	115	126	being	be	VBG
homer-odyssey-850_23	115	127	left	leave	VBN
homer-odyssey-850_23	115	128	alive	alive	JJ
homer-odyssey-850_23	115	129	;	;	:
homer-odyssey-850_23	115	130	how	how	WRB
homer-odyssey-850_23	115	131	at	at	IN
homer-odyssey-850_23	115	132	last	last	JJ
homer-odyssey-850_23	115	133	he	-PRON-	PRP
homer-odyssey-850_23	115	134	reached	reach	VBD
homer-odyssey-850_23	115	135	the	the	DT
homer-odyssey-850_23	115	136	Ogygian	ogygian	JJ
homer-odyssey-850_23	115	137	island	island	NN
homer-odyssey-850_23	115	138	and	and	CC
homer-odyssey-850_23	115	139	the	the	DT
homer-odyssey-850_23	115	140	nymph	nymph	NN
homer-odyssey-850_23	115	141	Calypso	calypso	NNP
homer-odyssey-850_23	115	142	,	,	,
homer-odyssey-850_23	115	143	who	who	WP
homer-odyssey-850_23	115	144	kept	keep	VBD
homer-odyssey-850_23	115	145	him	-PRON-	PRP
homer-odyssey-850_23	115	146	there	there	RB
homer-odyssey-850_23	115	147	in	in	IN
homer-odyssey-850_23	115	148	a	a	DT
homer-odyssey-850_23	115	149	cave	cave	NN
homer-odyssey-850_23	115	150	,	,	,
homer-odyssey-850_23	115	151	and	and	CC
homer-odyssey-850_23	115	152	fed	feed	VBD
homer-odyssey-850_23	115	153	him	-PRON-	PRP
homer-odyssey-850_23	115	154	,	,	,
homer-odyssey-850_23	115	155	and	and	CC
homer-odyssey-850_23	115	156	wanted	want	VBD
homer-odyssey-850_23	115	157	him	-PRON-	PRP
homer-odyssey-850_23	115	158	to	to	TO
homer-odyssey-850_23	115	159	marry	marry	VB
homer-odyssey-850_23	115	160	her	-PRON-	PRP
homer-odyssey-850_23	115	161	,	,	,
homer-odyssey-850_23	115	162	in	in	IN
homer-odyssey-850_23	115	163	which	which	WDT
homer-odyssey-850_23	115	164	case	case	NN
homer-odyssey-850_23	115	165	she	-PRON-	PRP
homer-odyssey-850_23	115	166	intended	intend	VBD
homer-odyssey-850_23	115	167	making	make	VBG
homer-odyssey-850_23	115	168	him	-PRON-	PRP
homer-odyssey-850_23	115	169	immortal	immortal	JJ
homer-odyssey-850_23	115	170	so	so	IN
homer-odyssey-850_23	115	171	that	that	IN
homer-odyssey-850_23	115	172	he	-PRON-	PRP
homer-odyssey-850_23	115	173	should	should	MD
homer-odyssey-850_23	115	174	never	never	RB
homer-odyssey-850_23	115	175	grow	grow	VB
homer-odyssey-850_23	115	176	old	old	JJ
homer-odyssey-850_23	115	177	,	,	,
homer-odyssey-850_23	115	178	but	but	CC
homer-odyssey-850_23	115	179	she	-PRON-	PRP
homer-odyssey-850_23	115	180	could	could	MD
homer-odyssey-850_23	115	181	not	not	RB
homer-odyssey-850_23	115	182	persuade	persuade	VB
homer-odyssey-850_23	115	183	him	-PRON-	PRP
homer-odyssey-850_23	115	184	to	to	TO
homer-odyssey-850_23	115	185	let	let	VB
homer-odyssey-850_23	115	186	her	-PRON-	PRP
homer-odyssey-850_23	115	187	do	do	VB
homer-odyssey-850_23	115	188	so	so	RB
homer-odyssey-850_23	115	189	;	;	:
homer-odyssey-850_23	115	190	and	and	CC
homer-odyssey-850_23	115	191	how	how	WRB
homer-odyssey-850_23	115	192	after	after	IN
homer-odyssey-850_23	115	193	much	much	JJ
homer-odyssey-850_23	115	194	suffering	suffering	NN
homer-odyssey-850_23	115	195	he	-PRON-	PRP
homer-odyssey-850_23	115	196	had	have	VBD
homer-odyssey-850_23	115	197	found	find	VBN
homer-odyssey-850_23	115	198	his	-PRON-	PRP$
homer-odyssey-850_23	115	199	way	way	NN
homer-odyssey-850_23	115	200	to	to	IN
homer-odyssey-850_23	115	201	the	the	DT
homer-odyssey-850_23	115	202	Phaeacians	phaeacians	NNPS
homer-odyssey-850_23	115	203	,	,	,
homer-odyssey-850_23	115	204	who	who	WP
homer-odyssey-850_23	115	205	had	have	VBD
homer-odyssey-850_23	115	206	treated	treat	VBN
homer-odyssey-850_23	115	207	him	-PRON-	PRP
homer-odyssey-850_23	115	208	as	as	IN
homer-odyssey-850_23	115	209	though	though	IN
homer-odyssey-850_23	115	210	he	-PRON-	PRP
homer-odyssey-850_23	115	211	had	have	VBD
homer-odyssey-850_23	115	212	been	be	VBN
homer-odyssey-850_23	115	213	a	a	DT
homer-odyssey-850_23	115	214	god	god	NN
homer-odyssey-850_23	115	215	,	,	,
homer-odyssey-850_23	115	216	and	and	CC
homer-odyssey-850_23	115	217	sent	send	VBD
homer-odyssey-850_23	115	218	him	-PRON-	PRP
homer-odyssey-850_23	115	219	back	back	RB
homer-odyssey-850_23	115	220	in	in	IN
homer-odyssey-850_23	115	221	a	a	DT
homer-odyssey-850_23	115	222	ship	ship	NN
homer-odyssey-850_23	115	223	to	to	IN
homer-odyssey-850_23	115	224	his	-PRON-	PRP$
homer-odyssey-850_23	115	225	own	own	JJ
homer-odyssey-850_23	115	226	country	country	NN
homer-odyssey-850_23	115	227	after	after	IN
homer-odyssey-850_23	115	228	having	have	VBG
homer-odyssey-850_23	115	229	given	give	VBN
homer-odyssey-850_23	115	230	him	-PRON-	PRP
homer-odyssey-850_23	115	231	gold	gold	NN
homer-odyssey-850_23	115	232	,	,	,
homer-odyssey-850_23	115	233	bronze	bronze	NN
homer-odyssey-850_23	115	234	,	,	,
homer-odyssey-850_23	115	235	and	and	CC
homer-odyssey-850_23	115	236	raiment	raiment	NN
homer-odyssey-850_23	115	237	in	in	IN
homer-odyssey-850_23	115	238	great	great	JJ
homer-odyssey-850_23	115	239	abundance	abundance	NN
homer-odyssey-850_23	115	240	.	.	.
homer-odyssey-850_23	116	1	This	this	DT
homer-odyssey-850_23	116	2	was	be	VBD
homer-odyssey-850_23	116	3	the	the	DT
homer-odyssey-850_23	116	4	last	last	JJ
homer-odyssey-850_23	116	5	thing	thing	NN
homer-odyssey-850_23	116	6	about	about	IN
homer-odyssey-850_23	116	7	which	which	WDT
homer-odyssey-850_23	116	8	he	-PRON-	PRP
homer-odyssey-850_23	116	9	told	tell	VBD
homer-odyssey-850_23	116	10	her	-PRON-	PRP
homer-odyssey-850_23	116	11	,	,	,
homer-odyssey-850_23	116	12	for	for	IN
homer-odyssey-850_23	116	13	here	here	RB
homer-odyssey-850_23	116	14	a	a	DT
homer-odyssey-850_23	116	15	deep	deep	JJ
homer-odyssey-850_23	116	16	sleep	sleep	NN
homer-odyssey-850_23	116	17	took	take	VBD
homer-odyssey-850_23	116	18	hold	hold	NN
homer-odyssey-850_23	116	19	upon	upon	IN
homer-odyssey-850_23	116	20	him	-PRON-	PRP
homer-odyssey-850_23	116	21	and	and	CC
homer-odyssey-850_23	116	22	eased	ease	VBD
homer-odyssey-850_23	116	23	the	the	DT
homer-odyssey-850_23	116	24	burden	burden	NN
homer-odyssey-850_23	116	25	of	of	IN
homer-odyssey-850_23	116	26	his	-PRON-	PRP$
homer-odyssey-850_23	116	27	sorrows	sorrow	NNS
homer-odyssey-850_23	116	28	.	.	.
homer-odyssey-850_23	117	1	Then	then	RB
homer-odyssey-850_23	117	2	Minerva	minerva	NNP
homer-odyssey-850_23	117	3	bethought	bethink	VBD
homer-odyssey-850_23	117	4	her	-PRON-	PRP
homer-odyssey-850_23	117	5	of	of	IN
homer-odyssey-850_23	117	6	another	another	DT
homer-odyssey-850_23	117	7	matter	matter	NN
homer-odyssey-850_23	117	8	.	.	.
homer-odyssey-850_23	118	1	When	when	WRB
homer-odyssey-850_23	118	2	she	-PRON-	PRP
homer-odyssey-850_23	118	3	deemed	deem	VBD
homer-odyssey-850_23	118	4	that	that	IN
homer-odyssey-850_23	118	5	Ulysses	ulysses	NNPS
homer-odyssey-850_23	118	6	had	have	VBD
homer-odyssey-850_23	118	7	had	have	VBN
homer-odyssey-850_23	118	8	both	both	DT
homer-odyssey-850_23	118	9	of	of	IN
homer-odyssey-850_23	118	10	his	-PRON-	PRP$
homer-odyssey-850_23	118	11	wife	wife	NN
homer-odyssey-850_23	118	12	and	and	CC
homer-odyssey-850_23	118	13	of	of	IN
homer-odyssey-850_23	118	14	repose	repose	NN
homer-odyssey-850_23	118	15	,	,	,
homer-odyssey-850_23	118	16	she	-PRON-	PRP
homer-odyssey-850_23	118	17	bade	bid	VBD
homer-odyssey-850_23	118	18	gold-	gold-	NN
homer-odyssey-850_23	118	19	enthroned	enthrone	VBN
homer-odyssey-850_23	118	20	Dawn	dawn	NNP
homer-odyssey-850_23	118	21	rise	rise	VB
homer-odyssey-850_23	118	22	out	out	IN
homer-odyssey-850_23	118	23	of	of	IN
homer-odyssey-850_23	118	24	Oceanus	oceanus	NNP
homer-odyssey-850_23	118	25	that	that	IN
homer-odyssey-850_23	118	26	she	-PRON-	PRP
homer-odyssey-850_23	118	27	might	may	MD
homer-odyssey-850_23	118	28	shed	shed	VB
homer-odyssey-850_23	118	29	light	light	NN
homer-odyssey-850_23	118	30	upon	upon	IN
homer-odyssey-850_23	118	31	mankind	mankind	NN
homer-odyssey-850_23	118	32	.	.	.
homer-odyssey-850_23	119	1	On	on	IN
homer-odyssey-850_23	119	2	this	this	DT
homer-odyssey-850_23	119	3	,	,	,
homer-odyssey-850_23	119	4	Ulysses	ulyss	NNS
homer-odyssey-850_23	119	5	rose	rise	VBD
homer-odyssey-850_23	119	6	from	from	IN
homer-odyssey-850_23	119	7	his	-PRON-	PRP$
homer-odyssey-850_23	119	8	comfortable	comfortable	JJ
homer-odyssey-850_23	119	9	bed	bed	NN
homer-odyssey-850_23	119	10	and	and	CC
homer-odyssey-850_23	119	11	said	say	VBD
homer-odyssey-850_23	119	12	to	to	IN
homer-odyssey-850_23	119	13	Penelope	penelope	NNP
homer-odyssey-850_23	119	14	,	,	,
homer-odyssey-850_23	119	15	"	"	''
homer-odyssey-850_23	119	16	Wife	wife	NN
homer-odyssey-850_23	119	17	,	,	,
homer-odyssey-850_23	119	18	we	-PRON-	PRP
homer-odyssey-850_23	119	19	have	have	VBP
homer-odyssey-850_23	119	20	both	both	DT
homer-odyssey-850_23	119	21	of	of	IN
homer-odyssey-850_23	119	22	us	-PRON-	PRP
homer-odyssey-850_23	119	23	had	have	VBD
homer-odyssey-850_23	119	24	our	-PRON-	PRP$
homer-odyssey-850_23	119	25	full	full	JJ
homer-odyssey-850_23	119	26	share	share	NN
homer-odyssey-850_23	119	27	of	of	IN
homer-odyssey-850_23	119	28	troubles	trouble	NNS
homer-odyssey-850_23	119	29	,	,	,
homer-odyssey-850_23	119	30	you	-PRON-	PRP
homer-odyssey-850_23	119	31	,	,	,
homer-odyssey-850_23	119	32	here	here	RB
homer-odyssey-850_23	119	33	,	,	,
homer-odyssey-850_23	119	34	in	in	IN
homer-odyssey-850_23	119	35	lamenting	lament	VBG
homer-odyssey-850_23	119	36	my	-PRON-	PRP$
homer-odyssey-850_23	119	37	absence	absence	NN
homer-odyssey-850_23	119	38	,	,	,
homer-odyssey-850_23	119	39	and	and	CC
homer-odyssey-850_23	119	40	I	-PRON-	PRP
homer-odyssey-850_23	119	41	in	in	IN
homer-odyssey-850_23	119	42	being	be	VBG
homer-odyssey-850_23	119	43	prevented	prevent	VBN
homer-odyssey-850_23	119	44	from	from	IN
homer-odyssey-850_23	119	45	getting	get	VBG
homer-odyssey-850_23	119	46	home	home	NN
homer-odyssey-850_23	119	47	though	though	IN
homer-odyssey-850_23	119	48	I	-PRON-	PRP
homer-odyssey-850_23	119	49	was	be	VBD
homer-odyssey-850_23	119	50	longing	long	VBG
homer-odyssey-850_23	119	51	all	all	PDT
homer-odyssey-850_23	119	52	the	the	DT
homer-odyssey-850_23	119	53	time	time	NN
homer-odyssey-850_23	119	54	to	to	TO
homer-odyssey-850_23	119	55	do	do	VB
homer-odyssey-850_23	119	56	so	so	RB
homer-odyssey-850_23	119	57	.	.	.
homer-odyssey-850_23	120	1	Now	now	RB
homer-odyssey-850_23	120	2	,	,	,
homer-odyssey-850_23	120	3	however	however	RB
homer-odyssey-850_23	120	4	,	,	,
homer-odyssey-850_23	120	5	that	that	IN
homer-odyssey-850_23	120	6	we	-PRON-	PRP
homer-odyssey-850_23	120	7	have	have	VBP
homer-odyssey-850_23	120	8	at	at	IN
homer-odyssey-850_23	120	9	last	last	JJ
homer-odyssey-850_23	120	10	come	come	VBN
homer-odyssey-850_23	120	11	together	together	RB
homer-odyssey-850_23	120	12	,	,	,
homer-odyssey-850_23	120	13	take	take	VB
homer-odyssey-850_23	120	14	care	care	NN
homer-odyssey-850_23	120	15	of	of	IN
homer-odyssey-850_23	120	16	the	the	DT
homer-odyssey-850_23	120	17	property	property	NN
homer-odyssey-850_23	120	18	that	that	WDT
homer-odyssey-850_23	120	19	is	be	VBZ
homer-odyssey-850_23	120	20	in	in	IN
homer-odyssey-850_23	120	21	the	the	DT
homer-odyssey-850_23	120	22	house	house	NN
homer-odyssey-850_23	120	23	.	.	.
homer-odyssey-850_23	121	1	As	as	IN
homer-odyssey-850_23	121	2	for	for	IN
homer-odyssey-850_23	121	3	the	the	DT
homer-odyssey-850_23	121	4	sheep	sheep	NNS
homer-odyssey-850_23	121	5	and	and	CC
homer-odyssey-850_23	121	6	goats	goat	NNS
homer-odyssey-850_23	121	7	which	which	WDT
homer-odyssey-850_23	121	8	the	the	DT
homer-odyssey-850_23	121	9	wicked	wicked	JJ
homer-odyssey-850_23	121	10	suitors	suitor	NNS
homer-odyssey-850_23	121	11	have	have	VBP
homer-odyssey-850_23	121	12	eaten	eat	VBN
homer-odyssey-850_23	121	13	,	,	,
homer-odyssey-850_23	121	14	I	-PRON-	PRP
homer-odyssey-850_23	121	15	will	will	MD
homer-odyssey-850_23	121	16	take	take	VB
homer-odyssey-850_23	121	17	many	many	JJ
homer-odyssey-850_23	121	18	myself	-PRON-	PRP
homer-odyssey-850_23	121	19	by	by	IN
homer-odyssey-850_23	121	20	force	force	NN
homer-odyssey-850_23	121	21	from	from	IN
homer-odyssey-850_23	121	22	other	other	JJ
homer-odyssey-850_23	121	23	people	people	NNS
homer-odyssey-850_23	121	24	,	,	,
homer-odyssey-850_23	121	25	and	and	CC
homer-odyssey-850_23	121	26	will	will	MD
homer-odyssey-850_23	121	27	compel	compel	VB
homer-odyssey-850_23	121	28	the	the	DT
homer-odyssey-850_23	121	29	Achaeans	achaeans	NNPS
homer-odyssey-850_23	121	30	to	to	TO
homer-odyssey-850_23	121	31	make	make	VB
homer-odyssey-850_23	121	32	good	good	JJ
homer-odyssey-850_23	121	33	the	the	DT
homer-odyssey-850_23	121	34	rest	rest	NN
homer-odyssey-850_23	121	35	till	till	IN
homer-odyssey-850_23	121	36	they	-PRON-	PRP
homer-odyssey-850_23	121	37	shall	shall	MD
homer-odyssey-850_23	121	38	have	have	VB
homer-odyssey-850_23	121	39	filled	fill	VBN
homer-odyssey-850_23	121	40	all	all	DT
homer-odyssey-850_23	121	41	my	-PRON-	PRP$
homer-odyssey-850_23	121	42	yards	yard	NNS
homer-odyssey-850_23	121	43	.	.	.
homer-odyssey-850_23	122	1	I	-PRON-	PRP
homer-odyssey-850_23	122	2	am	be	VBP
homer-odyssey-850_23	122	3	now	now	RB
homer-odyssey-850_23	122	4	going	go	VBG
homer-odyssey-850_23	122	5	to	to	IN
homer-odyssey-850_23	122	6	the	the	DT
homer-odyssey-850_23	122	7	wooded	wood	VBN
homer-odyssey-850_23	122	8	lands	land	NNS
homer-odyssey-850_23	122	9	out	out	RP
homer-odyssey-850_23	122	10	in	in	IN
homer-odyssey-850_23	122	11	the	the	DT
homer-odyssey-850_23	122	12	country	country	NN
homer-odyssey-850_23	122	13	to	to	TO
homer-odyssey-850_23	122	14	see	see	VB
homer-odyssey-850_23	122	15	my	-PRON-	PRP$
homer-odyssey-850_23	122	16	father	father	NN
homer-odyssey-850_23	122	17	who	who	WP
homer-odyssey-850_23	122	18	has	have	VBZ
homer-odyssey-850_23	122	19	so	so	RB
homer-odyssey-850_23	122	20	long	long	RB
homer-odyssey-850_23	122	21	been	be	VBN
homer-odyssey-850_23	122	22	grieved	grieve	VBN
homer-odyssey-850_23	122	23	on	on	IN
homer-odyssey-850_23	122	24	my	-PRON-	PRP$
homer-odyssey-850_23	122	25	account	account	NN
homer-odyssey-850_23	122	26	,	,	,
homer-odyssey-850_23	122	27	and	and	CC
homer-odyssey-850_23	122	28	to	to	IN
homer-odyssey-850_23	122	29	yourself	-PRON-	PRP
homer-odyssey-850_23	122	30	I	-PRON-	PRP
homer-odyssey-850_23	122	31	will	will	MD
homer-odyssey-850_23	122	32	give	give	VB
homer-odyssey-850_23	122	33	these	these	DT
homer-odyssey-850_23	122	34	instructions	instruction	NNS
homer-odyssey-850_23	122	35	,	,	,
homer-odyssey-850_23	122	36	though	though	IN
homer-odyssey-850_23	122	37	you	-PRON-	PRP
homer-odyssey-850_23	122	38	have	have	VBP
homer-odyssey-850_23	122	39	little	little	JJ
homer-odyssey-850_23	122	40	need	need	NN
homer-odyssey-850_23	122	41	of	of	IN
homer-odyssey-850_23	122	42	them	-PRON-	PRP
homer-odyssey-850_23	122	43	.	.	.
homer-odyssey-850_23	123	1	At	at	IN
homer-odyssey-850_23	123	2	sunrise	sunrise	NN
homer-odyssey-850_23	123	3	it	-PRON-	PRP
homer-odyssey-850_23	123	4	will	will	MD
homer-odyssey-850_23	123	5	at	at	IN
homer-odyssey-850_23	123	6	once	once	RB
homer-odyssey-850_23	123	7	get	get	VB
homer-odyssey-850_23	123	8	abroad	abroad	RB
homer-odyssey-850_23	123	9	that	that	IN
homer-odyssey-850_23	123	10	I	-PRON-	PRP
homer-odyssey-850_23	123	11	have	have	VBP
homer-odyssey-850_23	123	12	been	be	VBN
homer-odyssey-850_23	123	13	killing	kill	VBG
homer-odyssey-850_23	123	14	the	the	DT
homer-odyssey-850_23	123	15	suitors	suitor	NNS
homer-odyssey-850_23	123	16	;	;	:
homer-odyssey-850_23	123	17	go	go	VB
homer-odyssey-850_23	123	18	upstairs	upstairs	RB
homer-odyssey-850_23	123	19	,	,	,
homer-odyssey-850_23	123	20	therefore	therefore	RB
homer-odyssey-850_23	123	21	,	,	,
homer-odyssey-850_23	123	22	{	{	-LRB-
homer-odyssey-850_23	123	23	184	184	CD
homer-odyssey-850_23	123	24	}	}	-RRB-
homer-odyssey-850_23	123	25	and	and	CC
homer-odyssey-850_23	123	26	stay	stay	VB
homer-odyssey-850_23	123	27	there	there	RB
homer-odyssey-850_23	123	28	with	with	IN
homer-odyssey-850_23	123	29	your	-PRON-	PRP$
homer-odyssey-850_23	123	30	women	woman	NNS
homer-odyssey-850_23	123	31	.	.	.
homer-odyssey-850_23	124	1	See	see	VB
homer-odyssey-850_23	124	2	nobody	nobody	NN
homer-odyssey-850_23	124	3	and	and	CC
homer-odyssey-850_23	124	4	ask	ask	VB
homer-odyssey-850_23	124	5	no	no	DT
homer-odyssey-850_23	124	6	questions	question	NNS
homer-odyssey-850_23	124	7	.	.	.
homer-odyssey-850_23	124	8	"	"	''
homer-odyssey-850_23	125	1	{	{	-LRB-
homer-odyssey-850_23	125	2	185	185	CD
homer-odyssey-850_23	125	3	}	}	-RRB-
homer-odyssey-850_23	125	4	As	as	IN
homer-odyssey-850_23	125	5	he	-PRON-	PRP
homer-odyssey-850_23	125	6	spoke	speak	VBD
homer-odyssey-850_23	125	7	he	-PRON-	PRP
homer-odyssey-850_23	125	8	girded	gird	VBD
homer-odyssey-850_23	125	9	on	on	IN
homer-odyssey-850_23	125	10	his	-PRON-	PRP$
homer-odyssey-850_23	125	11	armour	armour	NN
homer-odyssey-850_23	125	12	.	.	.
homer-odyssey-850_23	126	1	Then	then	RB
homer-odyssey-850_23	126	2	he	-PRON-	PRP
homer-odyssey-850_23	126	3	roused	rouse	VBD
homer-odyssey-850_23	126	4	Telemachus	telemachus	NNP
homer-odyssey-850_23	126	5	,	,	,
homer-odyssey-850_23	126	6	Philoetius	philoetius	NNP
homer-odyssey-850_23	126	7	,	,	,
homer-odyssey-850_23	126	8	and	and	CC
homer-odyssey-850_23	126	9	Eumaeus	eumaeus	NNP
homer-odyssey-850_23	126	10	,	,	,
homer-odyssey-850_23	126	11	and	and	CC
homer-odyssey-850_23	126	12	told	tell	VBD
homer-odyssey-850_23	126	13	them	-PRON-	PRP
homer-odyssey-850_23	126	14	all	all	DT
homer-odyssey-850_23	126	15	to	to	TO
homer-odyssey-850_23	126	16	put	put	VB
homer-odyssey-850_23	126	17	on	on	RP
homer-odyssey-850_23	126	18	their	-PRON-	PRP$
homer-odyssey-850_23	126	19	armour	armour	NN
homer-odyssey-850_23	126	20	also	also	RB
homer-odyssey-850_23	126	21	.	.	.
homer-odyssey-850_23	127	1	This	this	DT
homer-odyssey-850_23	127	2	they	-PRON-	PRP
homer-odyssey-850_23	127	3	did	do	VBD
homer-odyssey-850_23	127	4	,	,	,
homer-odyssey-850_23	127	5	and	and	CC
homer-odyssey-850_23	127	6	armed	arm	VBD
homer-odyssey-850_23	127	7	themselves	-PRON-	PRP
homer-odyssey-850_23	127	8	.	.	.
homer-odyssey-850_23	128	1	When	when	WRB
homer-odyssey-850_23	128	2	they	-PRON-	PRP
homer-odyssey-850_23	128	3	had	have	VBD
homer-odyssey-850_23	128	4	done	do	VBN
homer-odyssey-850_23	128	5	so	so	RB
homer-odyssey-850_23	128	6	,	,	,
homer-odyssey-850_23	128	7	they	-PRON-	PRP
homer-odyssey-850_23	128	8	opened	open	VBD
homer-odyssey-850_23	128	9	the	the	DT
homer-odyssey-850_23	128	10	gates	gate	NNS
homer-odyssey-850_23	128	11	and	and	CC
homer-odyssey-850_23	128	12	sallied	sally	VBD
homer-odyssey-850_23	128	13	forth	forth	RB
homer-odyssey-850_23	128	14	,	,	,
homer-odyssey-850_23	128	15	Ulysses	ulyss	NNS
homer-odyssey-850_23	128	16	leading	lead	VBG
homer-odyssey-850_23	128	17	the	the	DT
homer-odyssey-850_23	128	18	way	way	NN
homer-odyssey-850_23	128	19	.	.	.
homer-odyssey-850_23	129	1	It	-PRON-	PRP
homer-odyssey-850_23	129	2	was	be	VBD
homer-odyssey-850_23	129	3	now	now	RB
homer-odyssey-850_23	129	4	daylight	daylight	NN
homer-odyssey-850_23	129	5	,	,	,
homer-odyssey-850_23	129	6	but	but	CC
homer-odyssey-850_23	129	7	Minerva	minerva	NNP
homer-odyssey-850_23	129	8	nevertheless	nevertheless	RB
homer-odyssey-850_23	129	9	concealed	conceal	VBD
homer-odyssey-850_23	129	10	them	-PRON-	PRP
homer-odyssey-850_23	129	11	in	in	IN
homer-odyssey-850_23	129	12	darkness	darkness	NN
homer-odyssey-850_23	129	13	and	and	CC
homer-odyssey-850_23	129	14	led	lead	VBD
homer-odyssey-850_23	129	15	them	-PRON-	PRP
homer-odyssey-850_23	129	16	quickly	quickly	RB
homer-odyssey-850_23	129	17	out	out	IN
homer-odyssey-850_23	129	18	of	of	IN
homer-odyssey-850_23	129	19	the	the	DT
homer-odyssey-850_23	129	20	town	town	NN
homer-odyssey-850_23	129	21	.	.	.
