id	sid	tid	token	lemma	pos
homer-odyssey-850_03	1	1	TELEMACHUS	telemachus	NNP
homer-odyssey-850_03	1	2	VISITS	visit	NNS
homer-odyssey-850_03	1	3	NESTOR	nestor	NNP
homer-odyssey-850_03	1	4	AT	at	IN
homer-odyssey-850_03	1	5	PYLOS	pylos	NNP
homer-odyssey-850_03	1	6	.	.	.
homer-odyssey-850_03	2	1	but	but	CC
homer-odyssey-850_03	2	2	as	as	IN
homer-odyssey-850_03	2	3	the	the	DT
homer-odyssey-850_03	2	4	sun	sun	NN
homer-odyssey-850_03	2	5	was	be	VBD
homer-odyssey-850_03	2	6	rising	rise	VBG
homer-odyssey-850_03	2	7	from	from	IN
homer-odyssey-850_03	2	8	the	the	DT
homer-odyssey-850_03	2	9	fair	fair	JJ
homer-odyssey-850_03	2	10	sea	sea	NN
homer-odyssey-850_03	2	11	{	{	-LRB-
homer-odyssey-850_03	2	12	24	24	CD
homer-odyssey-850_03	2	13	}	}	-RRB-
homer-odyssey-850_03	2	14	into	into	IN
homer-odyssey-850_03	2	15	the	the	DT
homer-odyssey-850_03	2	16	firmament	firmament	NN
homer-odyssey-850_03	2	17	of	of	IN
homer-odyssey-850_03	2	18	heaven	heaven	NNP
homer-odyssey-850_03	2	19	to	to	TO
homer-odyssey-850_03	2	20	shed	shed	VB
homer-odyssey-850_03	2	21	light	light	NN
homer-odyssey-850_03	2	22	on	on	IN
homer-odyssey-850_03	2	23	mortals	mortal	NNS
homer-odyssey-850_03	2	24	and	and	CC
homer-odyssey-850_03	2	25	immortals	immortal	NNS
homer-odyssey-850_03	2	26	,	,	,
homer-odyssey-850_03	2	27	they	-PRON-	PRP
homer-odyssey-850_03	2	28	reached	reach	VBD
homer-odyssey-850_03	2	29	Pylos	pylos	NNP
homer-odyssey-850_03	2	30	the	the	DT
homer-odyssey-850_03	2	31	city	city	NN
homer-odyssey-850_03	2	32	of	of	IN
homer-odyssey-850_03	2	33	Neleus	neleus	NNP
homer-odyssey-850_03	2	34	.	.	.
homer-odyssey-850_03	3	1	Now	now	RB
homer-odyssey-850_03	3	2	the	the	DT
homer-odyssey-850_03	3	3	people	people	NNS
homer-odyssey-850_03	3	4	of	of	IN
homer-odyssey-850_03	3	5	Pylos	pylos	NNP
homer-odyssey-850_03	3	6	were	be	VBD
homer-odyssey-850_03	3	7	gathered	gather	VBN
homer-odyssey-850_03	3	8	on	on	IN
homer-odyssey-850_03	3	9	the	the	DT
homer-odyssey-850_03	3	10	sea	sea	NN
homer-odyssey-850_03	3	11	shore	shore	NN
homer-odyssey-850_03	3	12	to	to	TO
homer-odyssey-850_03	3	13	offer	offer	VB
homer-odyssey-850_03	3	14	sacrifice	sacrifice	NN
homer-odyssey-850_03	3	15	of	of	IN
homer-odyssey-850_03	3	16	black	black	JJ
homer-odyssey-850_03	3	17	bulls	bull	NNS
homer-odyssey-850_03	3	18	to	to	IN
homer-odyssey-850_03	3	19	Neptune	neptune	NNP
homer-odyssey-850_03	3	20	lord	lord	NN
homer-odyssey-850_03	3	21	of	of	IN
homer-odyssey-850_03	3	22	the	the	DT
homer-odyssey-850_03	3	23	Earthquake	earthquake	NNP
homer-odyssey-850_03	3	24	.	.	.
homer-odyssey-850_03	4	1	There	there	EX
homer-odyssey-850_03	4	2	were	be	VBD
homer-odyssey-850_03	4	3	nine	nine	CD
homer-odyssey-850_03	4	4	guilds	guild	NNS
homer-odyssey-850_03	4	5	with	with	IN
homer-odyssey-850_03	4	6	five	five	CD
homer-odyssey-850_03	4	7	hundred	hundred	CD
homer-odyssey-850_03	4	8	men	man	NNS
homer-odyssey-850_03	4	9	in	in	IN
homer-odyssey-850_03	4	10	each	each	DT
homer-odyssey-850_03	4	11	,	,	,
homer-odyssey-850_03	4	12	and	and	CC
homer-odyssey-850_03	4	13	there	there	EX
homer-odyssey-850_03	4	14	were	be	VBD
homer-odyssey-850_03	4	15	nine	nine	CD
homer-odyssey-850_03	4	16	bulls	bull	NNS
homer-odyssey-850_03	4	17	to	to	IN
homer-odyssey-850_03	4	18	each	each	DT
homer-odyssey-850_03	4	19	guild	guild	JJ
homer-odyssey-850_03	4	20	.	.	.
homer-odyssey-850_03	5	1	As	as	IN
homer-odyssey-850_03	5	2	they	-PRON-	PRP
homer-odyssey-850_03	5	3	were	be	VBD
homer-odyssey-850_03	5	4	eating	eat	VBG
homer-odyssey-850_03	5	5	the	the	DT
homer-odyssey-850_03	5	6	inward	inward	JJ
homer-odyssey-850_03	5	7	meats	meat	NNS
homer-odyssey-850_03	5	8	{	{	-LRB-
homer-odyssey-850_03	5	9	25	25	CD
homer-odyssey-850_03	5	10	}	}	-RRB-
homer-odyssey-850_03	5	11	and	and	CC
homer-odyssey-850_03	5	12	burning	burn	VBG
homer-odyssey-850_03	5	13	the	the	DT
homer-odyssey-850_03	5	14	thigh	thigh	NN
homer-odyssey-850_03	5	15	bones	bone	NNS
homer-odyssey-850_03	5	16	[	[	-LRB-
homer-odyssey-850_03	5	17	on	on	IN
homer-odyssey-850_03	5	18	the	the	DT
homer-odyssey-850_03	5	19	embers	ember	NNS
homer-odyssey-850_03	5	20	]	]	-RRB-
homer-odyssey-850_03	5	21	in	in	IN
homer-odyssey-850_03	5	22	the	the	DT
homer-odyssey-850_03	5	23	name	name	NN
homer-odyssey-850_03	5	24	of	of	IN
homer-odyssey-850_03	5	25	Neptune	neptune	NNP
homer-odyssey-850_03	5	26	,	,	,
homer-odyssey-850_03	5	27	Telemachus	telemachus	NNP
homer-odyssey-850_03	5	28	and	and	CC
homer-odyssey-850_03	5	29	his	-PRON-	PRP$
homer-odyssey-850_03	5	30	crew	crew	NN
homer-odyssey-850_03	5	31	arrived	arrive	VBD
homer-odyssey-850_03	5	32	,	,	,
homer-odyssey-850_03	5	33	furled	furl	VBD
homer-odyssey-850_03	5	34	their	-PRON-	PRP$
homer-odyssey-850_03	5	35	sails	sail	NNS
homer-odyssey-850_03	5	36	,	,	,
homer-odyssey-850_03	5	37	brought	bring	VBD
homer-odyssey-850_03	5	38	their	-PRON-	PRP$
homer-odyssey-850_03	5	39	ship	ship	NN
homer-odyssey-850_03	5	40	to	to	IN
homer-odyssey-850_03	5	41	anchor	anchor	NN
homer-odyssey-850_03	5	42	,	,	,
homer-odyssey-850_03	5	43	and	and	CC
homer-odyssey-850_03	5	44	went	go	VBD
homer-odyssey-850_03	5	45	ashore	ashore	RB
homer-odyssey-850_03	5	46	.	.	.
homer-odyssey-850_03	6	1	Minerva	minerva	NNP
homer-odyssey-850_03	6	2	led	lead	VBD
homer-odyssey-850_03	6	3	the	the	DT
homer-odyssey-850_03	6	4	way	way	NN
homer-odyssey-850_03	6	5	and	and	CC
homer-odyssey-850_03	6	6	Telemachus	telemachus	NNP
homer-odyssey-850_03	6	7	followed	follow	VBD
homer-odyssey-850_03	6	8	her	-PRON-	PRP
homer-odyssey-850_03	6	9	.	.	.
homer-odyssey-850_03	7	1	Presently	presently	RB
homer-odyssey-850_03	7	2	she	-PRON-	PRP
homer-odyssey-850_03	7	3	said	say	VBD
homer-odyssey-850_03	7	4	,	,	,
homer-odyssey-850_03	7	5	"	"	``
homer-odyssey-850_03	7	6	Telemachus	telemachus	NN
homer-odyssey-850_03	7	7	,	,	,
homer-odyssey-850_03	7	8	you	-PRON-	PRP
homer-odyssey-850_03	7	9	must	must	MD
homer-odyssey-850_03	7	10	not	not	RB
homer-odyssey-850_03	7	11	be	be	VB
homer-odyssey-850_03	7	12	in	in	IN
homer-odyssey-850_03	7	13	the	the	DT
homer-odyssey-850_03	7	14	least	least	JJS
homer-odyssey-850_03	7	15	shy	shy	JJ
homer-odyssey-850_03	7	16	or	or	CC
homer-odyssey-850_03	7	17	nervous	nervous	JJ
homer-odyssey-850_03	7	18	;	;	:
homer-odyssey-850_03	7	19	you	-PRON-	PRP
homer-odyssey-850_03	7	20	have	have	VBP
homer-odyssey-850_03	7	21	taken	take	VBN
homer-odyssey-850_03	7	22	this	this	DT
homer-odyssey-850_03	7	23	voyage	voyage	NN
homer-odyssey-850_03	7	24	to	to	TO
homer-odyssey-850_03	7	25	try	try	VB
homer-odyssey-850_03	7	26	and	and	CC
homer-odyssey-850_03	7	27	find	find	VB
homer-odyssey-850_03	7	28	out	out	RP
homer-odyssey-850_03	7	29	where	where	WRB
homer-odyssey-850_03	7	30	your	-PRON-	PRP$
homer-odyssey-850_03	7	31	father	father	NN
homer-odyssey-850_03	7	32	is	be	VBZ
homer-odyssey-850_03	7	33	buried	bury	VBN
homer-odyssey-850_03	7	34	and	and	CC
homer-odyssey-850_03	7	35	how	how	WRB
homer-odyssey-850_03	7	36	he	-PRON-	PRP
homer-odyssey-850_03	7	37	came	come	VBD
homer-odyssey-850_03	7	38	by	by	IN
homer-odyssey-850_03	7	39	his	-PRON-	PRP$
homer-odyssey-850_03	7	40	end	end	NN
homer-odyssey-850_03	7	41	;	;	:
homer-odyssey-850_03	7	42	so	so	RB
homer-odyssey-850_03	7	43	go	go	VB
homer-odyssey-850_03	7	44	straight	straight	RB
homer-odyssey-850_03	7	45	up	up	RB
homer-odyssey-850_03	7	46	to	to	IN
homer-odyssey-850_03	7	47	Nestor	nestor	NNP
homer-odyssey-850_03	7	48	that	that	IN
homer-odyssey-850_03	7	49	we	-PRON-	PRP
homer-odyssey-850_03	7	50	may	may	MD
homer-odyssey-850_03	7	51	see	see	VB
homer-odyssey-850_03	7	52	what	what	WP
homer-odyssey-850_03	7	53	he	-PRON-	PRP
homer-odyssey-850_03	7	54	has	have	VBZ
homer-odyssey-850_03	7	55	got	get	VBN
homer-odyssey-850_03	7	56	to	to	TO
homer-odyssey-850_03	7	57	tell	tell	VB
homer-odyssey-850_03	7	58	us	-PRON-	PRP
homer-odyssey-850_03	7	59	.	.	.
homer-odyssey-850_03	8	1	Beg	beg	NNP
homer-odyssey-850_03	8	2	of	of	IN
homer-odyssey-850_03	8	3	him	-PRON-	PRP
homer-odyssey-850_03	8	4	to	to	TO
homer-odyssey-850_03	8	5	speak	speak	VB
homer-odyssey-850_03	8	6	the	the	DT
homer-odyssey-850_03	8	7	truth	truth	NN
homer-odyssey-850_03	8	8	,	,	,
homer-odyssey-850_03	8	9	and	and	CC
homer-odyssey-850_03	8	10	he	-PRON-	PRP
homer-odyssey-850_03	8	11	will	will	MD
homer-odyssey-850_03	8	12	tell	tell	VB
homer-odyssey-850_03	8	13	no	no	DT
homer-odyssey-850_03	8	14	lies	lie	NNS
homer-odyssey-850_03	8	15	,	,	,
homer-odyssey-850_03	8	16	for	for	IN
homer-odyssey-850_03	8	17	he	-PRON-	PRP
homer-odyssey-850_03	8	18	is	be	VBZ
homer-odyssey-850_03	8	19	an	an	DT
homer-odyssey-850_03	8	20	excellent	excellent	JJ
homer-odyssey-850_03	8	21	person	person	NN
homer-odyssey-850_03	8	22	.	.	.
homer-odyssey-850_03	8	23	"	"	''
homer-odyssey-850_03	9	1	"	"	``
homer-odyssey-850_03	9	2	But	but	CC
homer-odyssey-850_03	9	3	how	how	WRB
homer-odyssey-850_03	9	4	,	,	,
homer-odyssey-850_03	9	5	Mentor	mentor	VB
homer-odyssey-850_03	9	6	,	,	,
homer-odyssey-850_03	9	7	"	"	''
homer-odyssey-850_03	9	8	replied	reply	VBD
homer-odyssey-850_03	9	9	Telemachus	telemachus	NN
homer-odyssey-850_03	9	10	,	,	,
homer-odyssey-850_03	9	11	"	"	''
homer-odyssey-850_03	9	12	dare	dare	VBP
homer-odyssey-850_03	9	13	I	-PRON-	PRP
homer-odyssey-850_03	9	14	go	go	VB
homer-odyssey-850_03	9	15	up	up	IN
homer-odyssey-850_03	9	16	to	to	IN
homer-odyssey-850_03	9	17	Nestor	nestor	NNP
homer-odyssey-850_03	9	18	,	,	,
homer-odyssey-850_03	9	19	and	and	CC
homer-odyssey-850_03	9	20	how	how	WRB
homer-odyssey-850_03	9	21	am	be	VBP
homer-odyssey-850_03	9	22	I	-PRON-	PRP
homer-odyssey-850_03	9	23	to	to	TO
homer-odyssey-850_03	9	24	address	address	VB
homer-odyssey-850_03	9	25	him	-PRON-	PRP
homer-odyssey-850_03	9	26	?	?	.
homer-odyssey-850_03	10	1	I	-PRON-	PRP
homer-odyssey-850_03	10	2	have	have	VBP
homer-odyssey-850_03	10	3	never	never	RB
homer-odyssey-850_03	10	4	yet	yet	RB
homer-odyssey-850_03	10	5	been	be	VBN
homer-odyssey-850_03	10	6	used	use	VBN
homer-odyssey-850_03	10	7	to	to	IN
homer-odyssey-850_03	10	8	holding	hold	VBG
homer-odyssey-850_03	10	9	long	long	JJ
homer-odyssey-850_03	10	10	conversations	conversation	NNS
homer-odyssey-850_03	10	11	with	with	IN
homer-odyssey-850_03	10	12	people	people	NNS
homer-odyssey-850_03	10	13	,	,	,
homer-odyssey-850_03	10	14	and	and	CC
homer-odyssey-850_03	10	15	am	be	VBP
homer-odyssey-850_03	10	16	ashamed	ashamed	JJ
homer-odyssey-850_03	10	17	to	to	TO
homer-odyssey-850_03	10	18	begin	begin	VB
homer-odyssey-850_03	10	19	questioning	question	VBG
homer-odyssey-850_03	10	20	one	one	CD
homer-odyssey-850_03	10	21	who	who	WP
homer-odyssey-850_03	10	22	is	be	VBZ
homer-odyssey-850_03	10	23	so	so	RB
homer-odyssey-850_03	10	24	much	much	RB
homer-odyssey-850_03	10	25	older	old	JJR
homer-odyssey-850_03	10	26	than	than	IN
homer-odyssey-850_03	10	27	myself	-PRON-	PRP
homer-odyssey-850_03	10	28	.	.	.
homer-odyssey-850_03	10	29	"	"	''
homer-odyssey-850_03	11	1	"	"	``
homer-odyssey-850_03	11	2	Some	some	DT
homer-odyssey-850_03	11	3	things	thing	NNS
homer-odyssey-850_03	11	4	,	,	,
homer-odyssey-850_03	11	5	Telemachus	telemachus	NNP
homer-odyssey-850_03	11	6	,	,	,
homer-odyssey-850_03	11	7	"	"	''
homer-odyssey-850_03	11	8	answered	answer	VBD
homer-odyssey-850_03	11	9	Minerva	minerva	NNP
homer-odyssey-850_03	11	10	,	,	,
homer-odyssey-850_03	11	11	"	"	''
homer-odyssey-850_03	11	12	will	will	MD
homer-odyssey-850_03	11	13	be	be	VB
homer-odyssey-850_03	11	14	suggested	suggest	VBN
homer-odyssey-850_03	11	15	to	to	IN
homer-odyssey-850_03	11	16	you	-PRON-	PRP
homer-odyssey-850_03	11	17	by	by	IN
homer-odyssey-850_03	11	18	your	-PRON-	PRP$
homer-odyssey-850_03	11	19	own	own	JJ
homer-odyssey-850_03	11	20	instinct	instinct	NN
homer-odyssey-850_03	11	21	,	,	,
homer-odyssey-850_03	11	22	and	and	CC
homer-odyssey-850_03	11	23	heaven	heaven	NNP
homer-odyssey-850_03	11	24	will	will	MD
homer-odyssey-850_03	11	25	prompt	prompt	VB
homer-odyssey-850_03	11	26	you	-PRON-	PRP
homer-odyssey-850_03	11	27	further	further	RB
homer-odyssey-850_03	11	28	;	;	:
homer-odyssey-850_03	11	29	for	for	IN
homer-odyssey-850_03	11	30	I	-PRON-	PRP
homer-odyssey-850_03	11	31	am	be	VBP
homer-odyssey-850_03	11	32	assured	assure	VBN
homer-odyssey-850_03	11	33	that	that	IN
homer-odyssey-850_03	11	34	the	the	DT
homer-odyssey-850_03	11	35	gods	god	NNS
homer-odyssey-850_03	11	36	have	have	VBP
homer-odyssey-850_03	11	37	been	be	VBN
homer-odyssey-850_03	11	38	with	with	IN
homer-odyssey-850_03	11	39	you	-PRON-	PRP
homer-odyssey-850_03	11	40	from	from	IN
homer-odyssey-850_03	11	41	the	the	DT
homer-odyssey-850_03	11	42	time	time	NN
homer-odyssey-850_03	11	43	of	of	IN
homer-odyssey-850_03	11	44	your	-PRON-	PRP$
homer-odyssey-850_03	11	45	birth	birth	NN
homer-odyssey-850_03	11	46	until	until	IN
homer-odyssey-850_03	11	47	now	now	RB
homer-odyssey-850_03	11	48	.	.	.
homer-odyssey-850_03	11	49	"	"	''
homer-odyssey-850_03	12	1	She	-PRON-	PRP
homer-odyssey-850_03	12	2	then	then	RB
homer-odyssey-850_03	12	3	went	go	VBD
homer-odyssey-850_03	12	4	quickly	quickly	RB
homer-odyssey-850_03	12	5	on	on	RB
homer-odyssey-850_03	12	6	,	,	,
homer-odyssey-850_03	12	7	and	and	CC
homer-odyssey-850_03	12	8	Telemachus	telemachus	NNP
homer-odyssey-850_03	12	9	followed	follow	VBD
homer-odyssey-850_03	12	10	in	in	IN
homer-odyssey-850_03	12	11	her	-PRON-	PRP$
homer-odyssey-850_03	12	12	steps	step	NNS
homer-odyssey-850_03	12	13	till	till	IN
homer-odyssey-850_03	12	14	they	-PRON-	PRP
homer-odyssey-850_03	12	15	reached	reach	VBD
homer-odyssey-850_03	12	16	the	the	DT
homer-odyssey-850_03	12	17	place	place	NN
homer-odyssey-850_03	12	18	where	where	WRB
homer-odyssey-850_03	12	19	the	the	DT
homer-odyssey-850_03	12	20	guilds	guild	NNS
homer-odyssey-850_03	12	21	of	of	IN
homer-odyssey-850_03	12	22	the	the	DT
homer-odyssey-850_03	12	23	Pylian	pylian	JJ
homer-odyssey-850_03	12	24	people	people	NNS
homer-odyssey-850_03	12	25	were	be	VBD
homer-odyssey-850_03	12	26	assembled	assemble	VBN
homer-odyssey-850_03	12	27	.	.	.
homer-odyssey-850_03	13	1	There	there	RB
homer-odyssey-850_03	13	2	they	-PRON-	PRP
homer-odyssey-850_03	13	3	found	find	VBD
homer-odyssey-850_03	13	4	Nestor	nestor	NNP
homer-odyssey-850_03	13	5	sitting	sit	VBG
homer-odyssey-850_03	13	6	with	with	IN
homer-odyssey-850_03	13	7	his	-PRON-	PRP$
homer-odyssey-850_03	13	8	sons	son	NNS
homer-odyssey-850_03	13	9	,	,	,
homer-odyssey-850_03	13	10	while	while	IN
homer-odyssey-850_03	13	11	his	-PRON-	PRP$
homer-odyssey-850_03	13	12	company	company	NN
homer-odyssey-850_03	13	13	round	round	IN
homer-odyssey-850_03	13	14	him	-PRON-	PRP
homer-odyssey-850_03	13	15	were	be	VBD
homer-odyssey-850_03	13	16	busy	busy	JJ
homer-odyssey-850_03	13	17	getting	get	VBG
homer-odyssey-850_03	13	18	dinner	dinner	NN
homer-odyssey-850_03	13	19	ready	ready	JJ
homer-odyssey-850_03	13	20	,	,	,
homer-odyssey-850_03	13	21	and	and	CC
homer-odyssey-850_03	13	22	putting	put	VBG
homer-odyssey-850_03	13	23	pieces	piece	NNS
homer-odyssey-850_03	13	24	of	of	IN
homer-odyssey-850_03	13	25	meat	meat	NN
homer-odyssey-850_03	13	26	on	on	IN
homer-odyssey-850_03	13	27	to	to	IN
homer-odyssey-850_03	13	28	the	the	DT
homer-odyssey-850_03	13	29	spits	spit	NNS
homer-odyssey-850_03	13	30	{	{	-LRB-
homer-odyssey-850_03	13	31	26	26	CD
homer-odyssey-850_03	13	32	}	}	-RRB-
homer-odyssey-850_03	13	33	while	while	IN
homer-odyssey-850_03	13	34	other	other	JJ
homer-odyssey-850_03	13	35	pieces	piece	NNS
homer-odyssey-850_03	13	36	were	be	VBD
homer-odyssey-850_03	13	37	cooking	cook	VBG
homer-odyssey-850_03	13	38	.	.	.
homer-odyssey-850_03	14	1	When	when	WRB
homer-odyssey-850_03	14	2	they	-PRON-	PRP
homer-odyssey-850_03	14	3	saw	see	VBD
homer-odyssey-850_03	14	4	the	the	DT
homer-odyssey-850_03	14	5	strangers	stranger	NNS
homer-odyssey-850_03	14	6	they	-PRON-	PRP
homer-odyssey-850_03	14	7	crowded	crowd	VBD
homer-odyssey-850_03	14	8	round	round	IN
homer-odyssey-850_03	14	9	them	-PRON-	PRP
homer-odyssey-850_03	14	10	,	,	,
homer-odyssey-850_03	14	11	took	take	VBD
homer-odyssey-850_03	14	12	them	-PRON-	PRP
homer-odyssey-850_03	14	13	by	by	IN
homer-odyssey-850_03	14	14	the	the	DT
homer-odyssey-850_03	14	15	hand	hand	NN
homer-odyssey-850_03	14	16	and	and	CC
homer-odyssey-850_03	14	17	bade	bade	VB
homer-odyssey-850_03	14	18	them	-PRON-	PRP
homer-odyssey-850_03	14	19	take	take	VB
homer-odyssey-850_03	14	20	their	-PRON-	PRP$
homer-odyssey-850_03	14	21	places	place	NNS
homer-odyssey-850_03	14	22	.	.	.
homer-odyssey-850_03	15	1	Nestor	nestor	NNP
homer-odyssey-850_03	15	2	's	's	POS
homer-odyssey-850_03	15	3	son	son	NN
homer-odyssey-850_03	15	4	Pisistratus	pisistratus	NNP
homer-odyssey-850_03	15	5	at	at	IN
homer-odyssey-850_03	15	6	once	once	RB
homer-odyssey-850_03	15	7	offered	offer	VBD
homer-odyssey-850_03	15	8	his	-PRON-	PRP$
homer-odyssey-850_03	15	9	hand	hand	NN
homer-odyssey-850_03	15	10	to	to	IN
homer-odyssey-850_03	15	11	each	each	DT
homer-odyssey-850_03	15	12	of	of	IN
homer-odyssey-850_03	15	13	them	-PRON-	PRP
homer-odyssey-850_03	15	14	,	,	,
homer-odyssey-850_03	15	15	and	and	CC
homer-odyssey-850_03	15	16	seated	seat	VBD
homer-odyssey-850_03	15	17	them	-PRON-	PRP
homer-odyssey-850_03	15	18	on	on	IN
homer-odyssey-850_03	15	19	some	some	DT
homer-odyssey-850_03	15	20	soft	soft	JJ
homer-odyssey-850_03	15	21	sheepskins	sheepskin	NNS
homer-odyssey-850_03	15	22	that	that	WDT
homer-odyssey-850_03	15	23	were	be	VBD
homer-odyssey-850_03	15	24	lying	lie	VBG
homer-odyssey-850_03	15	25	on	on	IN
homer-odyssey-850_03	15	26	the	the	DT
homer-odyssey-850_03	15	27	sands	sand	NNS
homer-odyssey-850_03	15	28	near	near	IN
homer-odyssey-850_03	15	29	his	-PRON-	PRP$
homer-odyssey-850_03	15	30	father	father	NN
homer-odyssey-850_03	15	31	and	and	CC
homer-odyssey-850_03	15	32	his	-PRON-	PRP$
homer-odyssey-850_03	15	33	brother	brother	NN
homer-odyssey-850_03	15	34	Thrasymedes	thrasymedes	NNP
homer-odyssey-850_03	15	35	.	.	.
homer-odyssey-850_03	16	1	Then	then	RB
homer-odyssey-850_03	16	2	he	-PRON-	PRP
homer-odyssey-850_03	16	3	gave	give	VBD
homer-odyssey-850_03	16	4	them	-PRON-	PRP
homer-odyssey-850_03	16	5	their	-PRON-	PRP$
homer-odyssey-850_03	16	6	portions	portion	NNS
homer-odyssey-850_03	16	7	of	of	IN
homer-odyssey-850_03	16	8	the	the	DT
homer-odyssey-850_03	16	9	inward	inward	JJ
homer-odyssey-850_03	16	10	meats	meat	NNS
homer-odyssey-850_03	16	11	and	and	CC
homer-odyssey-850_03	16	12	poured	pour	VBD
homer-odyssey-850_03	16	13	wine	wine	NN
homer-odyssey-850_03	16	14	for	for	IN
homer-odyssey-850_03	16	15	them	-PRON-	PRP
homer-odyssey-850_03	16	16	into	into	IN
homer-odyssey-850_03	16	17	a	a	DT
homer-odyssey-850_03	16	18	golden	golden	JJ
homer-odyssey-850_03	16	19	cup	cup	NN
homer-odyssey-850_03	16	20	,	,	,
homer-odyssey-850_03	16	21	handing	hand	VBG
homer-odyssey-850_03	16	22	it	-PRON-	PRP
homer-odyssey-850_03	16	23	to	to	IN
homer-odyssey-850_03	16	24	Minerva	minerva	NNP
homer-odyssey-850_03	16	25	first	first	RB
homer-odyssey-850_03	16	26	,	,	,
homer-odyssey-850_03	16	27	and	and	CC
homer-odyssey-850_03	16	28	saluting	salute	VBG
homer-odyssey-850_03	16	29	her	-PRON-	PRP
homer-odyssey-850_03	16	30	at	at	IN
homer-odyssey-850_03	16	31	the	the	DT
homer-odyssey-850_03	16	32	same	same	JJ
homer-odyssey-850_03	16	33	time	time	NN
homer-odyssey-850_03	16	34	.	.	.
homer-odyssey-850_03	17	1	"	"	``
homer-odyssey-850_03	17	2	Offer	offer	VB
homer-odyssey-850_03	17	3	a	a	DT
homer-odyssey-850_03	17	4	prayer	prayer	NN
homer-odyssey-850_03	17	5	,	,	,
homer-odyssey-850_03	17	6	sir	sir	NN
homer-odyssey-850_03	17	7	,	,	,
homer-odyssey-850_03	17	8	"	"	''
homer-odyssey-850_03	17	9	said	say	VBD
homer-odyssey-850_03	17	10	he	-PRON-	PRP
homer-odyssey-850_03	17	11	,	,	,
homer-odyssey-850_03	17	12	"	"	``
homer-odyssey-850_03	17	13	to	to	IN
homer-odyssey-850_03	17	14	King	king	NNP
homer-odyssey-850_03	17	15	Neptune	neptune	NNP
homer-odyssey-850_03	17	16	,	,	,
homer-odyssey-850_03	17	17	for	for	IN
homer-odyssey-850_03	17	18	it	-PRON-	PRP
homer-odyssey-850_03	17	19	is	be	VBZ
homer-odyssey-850_03	17	20	his	-PRON-	PRP$
homer-odyssey-850_03	17	21	feast	feast	NN
homer-odyssey-850_03	17	22	that	that	IN
homer-odyssey-850_03	17	23	you	-PRON-	PRP
homer-odyssey-850_03	17	24	are	be	VBP
homer-odyssey-850_03	17	25	joining	join	VBG
homer-odyssey-850_03	17	26	;	;	:
homer-odyssey-850_03	17	27	when	when	WRB
homer-odyssey-850_03	17	28	you	-PRON-	PRP
homer-odyssey-850_03	17	29	have	have	VBP
homer-odyssey-850_03	17	30	duly	duly	RB
homer-odyssey-850_03	17	31	prayed	pray	VBN
homer-odyssey-850_03	17	32	and	and	CC
homer-odyssey-850_03	17	33	made	make	VBD
homer-odyssey-850_03	17	34	your	-PRON-	PRP$
homer-odyssey-850_03	17	35	drink	drink	NN
homer-odyssey-850_03	17	36	offering	offering	NN
homer-odyssey-850_03	17	37	,	,	,
homer-odyssey-850_03	17	38	pass	pass	VB
homer-odyssey-850_03	17	39	the	the	DT
homer-odyssey-850_03	17	40	cup	cup	NN
homer-odyssey-850_03	17	41	to	to	IN
homer-odyssey-850_03	17	42	your	-PRON-	PRP$
homer-odyssey-850_03	17	43	friend	friend	NN
homer-odyssey-850_03	17	44	that	that	IN
homer-odyssey-850_03	17	45	he	-PRON-	PRP
homer-odyssey-850_03	17	46	may	may	MD
homer-odyssey-850_03	17	47	do	do	VB
homer-odyssey-850_03	17	48	so	so	RB
homer-odyssey-850_03	17	49	also	also	RB
homer-odyssey-850_03	17	50	.	.	.
homer-odyssey-850_03	18	1	I	-PRON-	PRP
homer-odyssey-850_03	18	2	doubt	doubt	VBP
homer-odyssey-850_03	18	3	not	not	RB
homer-odyssey-850_03	18	4	that	that	IN
homer-odyssey-850_03	18	5	he	-PRON-	PRP
homer-odyssey-850_03	18	6	too	too	RB
homer-odyssey-850_03	18	7	lifts	lift	VBZ
homer-odyssey-850_03	18	8	his	-PRON-	PRP$
homer-odyssey-850_03	18	9	hands	hand	NNS
homer-odyssey-850_03	18	10	in	in	IN
homer-odyssey-850_03	18	11	prayer	prayer	NN
homer-odyssey-850_03	18	12	,	,	,
homer-odyssey-850_03	18	13	for	for	IN
homer-odyssey-850_03	18	14	man	man	NN
homer-odyssey-850_03	18	15	can	can	MD
homer-odyssey-850_03	18	16	not	not	RB
homer-odyssey-850_03	18	17	live	live	VB
homer-odyssey-850_03	18	18	without	without	IN
homer-odyssey-850_03	18	19	God	god	NNP
homer-odyssey-850_03	18	20	in	in	IN
homer-odyssey-850_03	18	21	the	the	DT
homer-odyssey-850_03	18	22	world	world	NN
homer-odyssey-850_03	18	23	.	.	.
homer-odyssey-850_03	19	1	Still	still	RB
homer-odyssey-850_03	19	2	he	-PRON-	PRP
homer-odyssey-850_03	19	3	is	be	VBZ
homer-odyssey-850_03	19	4	younger	young	JJR
homer-odyssey-850_03	19	5	than	than	IN
homer-odyssey-850_03	19	6	you	-PRON-	PRP
homer-odyssey-850_03	19	7	are	be	VBP
homer-odyssey-850_03	19	8	,	,	,
homer-odyssey-850_03	19	9	and	and	CC
homer-odyssey-850_03	19	10	is	be	VBZ
homer-odyssey-850_03	19	11	much	much	JJ
homer-odyssey-850_03	19	12	of	of	IN
homer-odyssey-850_03	19	13	an	an	DT
homer-odyssey-850_03	19	14	age	age	NN
homer-odyssey-850_03	19	15	with	with	IN
homer-odyssey-850_03	19	16	myself	-PRON-	PRP
homer-odyssey-850_03	19	17	,	,	,
homer-odyssey-850_03	19	18	so	so	RB
homer-odyssey-850_03	19	19	I	-PRON-	PRP
homer-odyssey-850_03	19	20	will	will	MD
homer-odyssey-850_03	19	21	give	give	VB
homer-odyssey-850_03	19	22	you	-PRON-	PRP
homer-odyssey-850_03	19	23	the	the	DT
homer-odyssey-850_03	19	24	precedence	precedence	NN
homer-odyssey-850_03	19	25	.	.	.
homer-odyssey-850_03	19	26	"	"	''
homer-odyssey-850_03	20	1	As	as	IN
homer-odyssey-850_03	20	2	he	-PRON-	PRP
homer-odyssey-850_03	20	3	spoke	speak	VBD
homer-odyssey-850_03	20	4	he	-PRON-	PRP
homer-odyssey-850_03	20	5	handed	hand	VBD
homer-odyssey-850_03	20	6	her	-PRON-	PRP
homer-odyssey-850_03	20	7	the	the	DT
homer-odyssey-850_03	20	8	cup	cup	NN
homer-odyssey-850_03	20	9	.	.	.
homer-odyssey-850_03	21	1	Minerva	minerva	NNP
homer-odyssey-850_03	21	2	thought	think	VBD
homer-odyssey-850_03	21	3	it	-PRON-	PRP
homer-odyssey-850_03	21	4	very	very	RB
homer-odyssey-850_03	21	5	right	right	RB
homer-odyssey-850_03	21	6	and	and	CC
homer-odyssey-850_03	21	7	proper	proper	JJ
homer-odyssey-850_03	21	8	of	of	IN
homer-odyssey-850_03	21	9	him	-PRON-	PRP
homer-odyssey-850_03	21	10	to	to	TO
homer-odyssey-850_03	21	11	have	have	VB
homer-odyssey-850_03	21	12	given	give	VBN
homer-odyssey-850_03	21	13	it	-PRON-	PRP
homer-odyssey-850_03	21	14	to	to	IN
homer-odyssey-850_03	21	15	herself	-PRON-	PRP
homer-odyssey-850_03	21	16	first	first	RB
homer-odyssey-850_03	21	17	;	;	:
homer-odyssey-850_03	21	18	{	{	-LRB-
homer-odyssey-850_03	21	19	27	27	CD
homer-odyssey-850_03	21	20	}	}	-RRB-
homer-odyssey-850_03	21	21	she	-PRON-	PRP
homer-odyssey-850_03	21	22	accordingly	accordingly	RB
homer-odyssey-850_03	21	23	began	begin	VBD
homer-odyssey-850_03	21	24	praying	pray	VBG
homer-odyssey-850_03	21	25	heartily	heartily	RB
homer-odyssey-850_03	21	26	to	to	IN
homer-odyssey-850_03	21	27	Neptune	neptune	NNP
homer-odyssey-850_03	21	28	.	.	.
homer-odyssey-850_03	21	29	"	"	''
homer-odyssey-850_03	22	1	O	o	UH
homer-odyssey-850_03	22	2	thou	thou	VB
homer-odyssey-850_03	22	3	,	,	,
homer-odyssey-850_03	22	4	"	"	''
homer-odyssey-850_03	22	5	she	-PRON-	PRP
homer-odyssey-850_03	22	6	cried	cry	VBD
homer-odyssey-850_03	22	7	,	,	,
homer-odyssey-850_03	22	8	"	"	``
homer-odyssey-850_03	22	9	that	that	IN
homer-odyssey-850_03	22	10	encirclest	encircl	JJS
homer-odyssey-850_03	22	11	the	the	DT
homer-odyssey-850_03	22	12	earth	earth	NN
homer-odyssey-850_03	22	13	,	,	,
homer-odyssey-850_03	22	14	vouchsafe	vouchsafe	NN
homer-odyssey-850_03	22	15	to	to	TO
homer-odyssey-850_03	22	16	grant	grant	VB
homer-odyssey-850_03	22	17	the	the	DT
homer-odyssey-850_03	22	18	prayers	prayer	NNS
homer-odyssey-850_03	22	19	of	of	IN
homer-odyssey-850_03	22	20	thy	thy	PRP$
homer-odyssey-850_03	22	21	servants	servant	NNS
homer-odyssey-850_03	22	22	that	that	WDT
homer-odyssey-850_03	22	23	call	call	VBP
homer-odyssey-850_03	22	24	upon	upon	IN
homer-odyssey-850_03	22	25	thee	thee	PRP
homer-odyssey-850_03	22	26	.	.	.
homer-odyssey-850_03	23	1	More	more	RBR
homer-odyssey-850_03	23	2	especially	especially	RB
homer-odyssey-850_03	23	3	we	-PRON-	PRP
homer-odyssey-850_03	23	4	pray	pray	VBP
homer-odyssey-850_03	23	5	thee	thee	PRP
homer-odyssey-850_03	23	6	send	send	VBP
homer-odyssey-850_03	23	7	down	down	RP
homer-odyssey-850_03	23	8	thy	thy	PRP$
homer-odyssey-850_03	23	9	grace	grace	NN
homer-odyssey-850_03	23	10	on	on	IN
homer-odyssey-850_03	23	11	Nestor	nestor	NNP
homer-odyssey-850_03	23	12	and	and	CC
homer-odyssey-850_03	23	13	on	on	IN
homer-odyssey-850_03	23	14	his	-PRON-	PRP$
homer-odyssey-850_03	23	15	sons	son	NNS
homer-odyssey-850_03	23	16	;	;	:
homer-odyssey-850_03	23	17	thereafter	thereafter	RB
homer-odyssey-850_03	23	18	also	also	RB
homer-odyssey-850_03	23	19	make	make	VBP
homer-odyssey-850_03	23	20	the	the	DT
homer-odyssey-850_03	23	21	rest	rest	NN
homer-odyssey-850_03	23	22	of	of	IN
homer-odyssey-850_03	23	23	the	the	DT
homer-odyssey-850_03	23	24	Pylian	pylian	JJ
homer-odyssey-850_03	23	25	people	people	NNS
homer-odyssey-850_03	23	26	some	some	DT
homer-odyssey-850_03	23	27	handsome	handsome	JJ
homer-odyssey-850_03	23	28	return	return	NN
homer-odyssey-850_03	23	29	for	for	IN
homer-odyssey-850_03	23	30	the	the	DT
homer-odyssey-850_03	23	31	goodly	goodly	RB
homer-odyssey-850_03	23	32	hecatomb	hecatomb	JJ
homer-odyssey-850_03	23	33	they	-PRON-	PRP
homer-odyssey-850_03	23	34	are	be	VBP
homer-odyssey-850_03	23	35	offering	offer	VBG
homer-odyssey-850_03	23	36	you	-PRON-	PRP
homer-odyssey-850_03	23	37	.	.	.
homer-odyssey-850_03	24	1	Lastly	lastly	RB
homer-odyssey-850_03	24	2	,	,	,
homer-odyssey-850_03	24	3	grant	grant	VB
homer-odyssey-850_03	24	4	Telemachus	telemachus	NNP
homer-odyssey-850_03	24	5	and	and	CC
homer-odyssey-850_03	24	6	myself	-PRON-	PRP
homer-odyssey-850_03	24	7	a	a	DT
homer-odyssey-850_03	24	8	happy	happy	JJ
homer-odyssey-850_03	24	9	issue	issue	NN
homer-odyssey-850_03	24	10	,	,	,
homer-odyssey-850_03	24	11	in	in	IN
homer-odyssey-850_03	24	12	respect	respect	NN
homer-odyssey-850_03	24	13	of	of	IN
homer-odyssey-850_03	24	14	the	the	DT
homer-odyssey-850_03	24	15	matter	matter	NN
homer-odyssey-850_03	24	16	that	that	WDT
homer-odyssey-850_03	24	17	has	have	VBZ
homer-odyssey-850_03	24	18	brought	bring	VBN
homer-odyssey-850_03	24	19	us	-PRON-	PRP
homer-odyssey-850_03	24	20	in	in	IN
homer-odyssey-850_03	24	21	our	-PRON-	PRP$
homer-odyssey-850_03	24	22	ship	ship	NN
homer-odyssey-850_03	24	23	to	to	IN
homer-odyssey-850_03	24	24	Pylos	pylos	NNP
homer-odyssey-850_03	24	25	.	.	.
homer-odyssey-850_03	24	26	"	"	''
homer-odyssey-850_03	25	1	When	when	WRB
homer-odyssey-850_03	25	2	she	-PRON-	PRP
homer-odyssey-850_03	25	3	had	have	VBD
homer-odyssey-850_03	25	4	thus	thus	RB
homer-odyssey-850_03	25	5	made	make	VBN
homer-odyssey-850_03	25	6	an	an	DT
homer-odyssey-850_03	25	7	end	end	NN
homer-odyssey-850_03	25	8	of	of	IN
homer-odyssey-850_03	25	9	praying	pray	VBG
homer-odyssey-850_03	25	10	,	,	,
homer-odyssey-850_03	25	11	she	-PRON-	PRP
homer-odyssey-850_03	25	12	handed	hand	VBD
homer-odyssey-850_03	25	13	the	the	DT
homer-odyssey-850_03	25	14	cup	cup	NN
homer-odyssey-850_03	25	15	to	to	TO
homer-odyssey-850_03	25	16	Telemachus	telemachus	VB
homer-odyssey-850_03	25	17	and	and	CC
homer-odyssey-850_03	25	18	he	-PRON-	PRP
homer-odyssey-850_03	25	19	prayed	pray	VBD
homer-odyssey-850_03	25	20	likewise	likewise	RB
homer-odyssey-850_03	25	21	.	.	.
homer-odyssey-850_03	26	1	By	by	IN
homer-odyssey-850_03	26	2	and	and	CC
homer-odyssey-850_03	26	3	by	by	RB
homer-odyssey-850_03	26	4	,	,	,
homer-odyssey-850_03	26	5	when	when	WRB
homer-odyssey-850_03	26	6	the	the	DT
homer-odyssey-850_03	26	7	outer	outer	JJ
homer-odyssey-850_03	26	8	meats	meat	NNS
homer-odyssey-850_03	26	9	were	be	VBD
homer-odyssey-850_03	26	10	roasted	roast	VBN
homer-odyssey-850_03	26	11	and	and	CC
homer-odyssey-850_03	26	12	had	have	VBD
homer-odyssey-850_03	26	13	been	be	VBN
homer-odyssey-850_03	26	14	taken	take	VBN
homer-odyssey-850_03	26	15	off	off	RP
homer-odyssey-850_03	26	16	the	the	DT
homer-odyssey-850_03	26	17	spits	spit	NNS
homer-odyssey-850_03	26	18	,	,	,
homer-odyssey-850_03	26	19	the	the	DT
homer-odyssey-850_03	26	20	carvers	carver	NNS
homer-odyssey-850_03	26	21	gave	give	VBD
homer-odyssey-850_03	26	22	every	every	DT
homer-odyssey-850_03	26	23	man	man	NN
homer-odyssey-850_03	26	24	his	-PRON-	PRP$
homer-odyssey-850_03	26	25	portion	portion	NN
homer-odyssey-850_03	26	26	and	and	CC
homer-odyssey-850_03	26	27	they	-PRON-	PRP
homer-odyssey-850_03	26	28	all	all	DT
homer-odyssey-850_03	26	29	made	make	VBD
homer-odyssey-850_03	26	30	an	an	DT
homer-odyssey-850_03	26	31	excellent	excellent	JJ
homer-odyssey-850_03	26	32	dinner	dinner	NN
homer-odyssey-850_03	26	33	.	.	.
homer-odyssey-850_03	27	1	As	as	RB
homer-odyssey-850_03	27	2	soon	soon	RB
homer-odyssey-850_03	27	3	as	as	IN
homer-odyssey-850_03	27	4	they	-PRON-	PRP
homer-odyssey-850_03	27	5	had	have	VBD
homer-odyssey-850_03	27	6	had	have	VBN
homer-odyssey-850_03	27	7	enough	enough	JJ
homer-odyssey-850_03	27	8	to	to	TO
homer-odyssey-850_03	27	9	eat	eat	VB
homer-odyssey-850_03	27	10	and	and	CC
homer-odyssey-850_03	27	11	drink	drink	VB
homer-odyssey-850_03	27	12	,	,	,
homer-odyssey-850_03	27	13	Nestor	nestor	NNP
homer-odyssey-850_03	27	14	,	,	,
homer-odyssey-850_03	27	15	knight	knight	NN
homer-odyssey-850_03	27	16	of	of	IN
homer-odyssey-850_03	27	17	Gerene	gerene	NNP
homer-odyssey-850_03	27	18	,	,	,
homer-odyssey-850_03	27	19	began	begin	VBD
homer-odyssey-850_03	27	20	to	to	TO
homer-odyssey-850_03	27	21	speak	speak	VB
homer-odyssey-850_03	27	22	.	.	.
homer-odyssey-850_03	28	1	"	"	``
homer-odyssey-850_03	28	2	Now	now	RB
homer-odyssey-850_03	28	3	,	,	,
homer-odyssey-850_03	28	4	"	"	''
homer-odyssey-850_03	28	5	said	say	VBD
homer-odyssey-850_03	28	6	he	-PRON-	PRP
homer-odyssey-850_03	28	7	,	,	,
homer-odyssey-850_03	28	8	"	"	``
homer-odyssey-850_03	28	9	that	that	IN
homer-odyssey-850_03	28	10	our	-PRON-	PRP$
homer-odyssey-850_03	28	11	guests	guest	NNS
homer-odyssey-850_03	28	12	have	have	VBP
homer-odyssey-850_03	28	13	done	do	VBN
homer-odyssey-850_03	28	14	their	-PRON-	PRP$
homer-odyssey-850_03	28	15	dinner	dinner	NN
homer-odyssey-850_03	28	16	,	,	,
homer-odyssey-850_03	28	17	it	-PRON-	PRP
homer-odyssey-850_03	28	18	will	will	MD
homer-odyssey-850_03	28	19	be	be	VB
homer-odyssey-850_03	28	20	best	good	JJS
homer-odyssey-850_03	28	21	to	to	TO
homer-odyssey-850_03	28	22	ask	ask	VB
homer-odyssey-850_03	28	23	them	-PRON-	PRP
homer-odyssey-850_03	28	24	who	who	WP
homer-odyssey-850_03	28	25	they	-PRON-	PRP
homer-odyssey-850_03	28	26	are	be	VBP
homer-odyssey-850_03	28	27	.	.	.
homer-odyssey-850_03	29	1	Who	who	WP
homer-odyssey-850_03	29	2	,	,	,
homer-odyssey-850_03	29	3	then	then	RB
homer-odyssey-850_03	29	4	,	,	,
homer-odyssey-850_03	29	5	sir	sir	NN
homer-odyssey-850_03	29	6	strangers	stranger	NNS
homer-odyssey-850_03	29	7	,	,	,
homer-odyssey-850_03	29	8	are	be	VBP
homer-odyssey-850_03	29	9	you	-PRON-	PRP
homer-odyssey-850_03	29	10	,	,	,
homer-odyssey-850_03	29	11	and	and	CC
homer-odyssey-850_03	29	12	from	from	IN
homer-odyssey-850_03	29	13	what	what	WDT
homer-odyssey-850_03	29	14	port	port	NN
homer-odyssey-850_03	29	15	have	have	VBP
homer-odyssey-850_03	29	16	you	-PRON-	PRP
homer-odyssey-850_03	29	17	sailed	sail	VBN
homer-odyssey-850_03	29	18	?	?	.
homer-odyssey-850_03	30	1	Are	be	VBP
homer-odyssey-850_03	30	2	you	-PRON-	PRP
homer-odyssey-850_03	30	3	traders	trader	NNS
homer-odyssey-850_03	30	4	?	?	.
homer-odyssey-850_03	31	1	or	or	CC
homer-odyssey-850_03	31	2	do	do	VBP
homer-odyssey-850_03	31	3	you	-PRON-	PRP
homer-odyssey-850_03	31	4	sail	sail	VB
homer-odyssey-850_03	31	5	the	the	DT
homer-odyssey-850_03	31	6	seas	sea	NNS
homer-odyssey-850_03	31	7	as	as	IN
homer-odyssey-850_03	31	8	rovers	rover	NNS
homer-odyssey-850_03	31	9	with	with	IN
homer-odyssey-850_03	31	10	your	-PRON-	PRP$
homer-odyssey-850_03	31	11	hand	hand	NN
homer-odyssey-850_03	31	12	against	against	IN
homer-odyssey-850_03	31	13	every	every	DT
homer-odyssey-850_03	31	14	man	man	NN
homer-odyssey-850_03	31	15	,	,	,
homer-odyssey-850_03	31	16	and	and	CC
homer-odyssey-850_03	31	17	every	every	DT
homer-odyssey-850_03	31	18	man	man	NN
homer-odyssey-850_03	31	19	's	's	POS
homer-odyssey-850_03	31	20	hand	hand	NN
homer-odyssey-850_03	31	21	against	against	IN
homer-odyssey-850_03	31	22	you	-PRON-	PRP
homer-odyssey-850_03	31	23	?	?	.
homer-odyssey-850_03	31	24	"	"	''
homer-odyssey-850_03	32	1	Telemachus	telemachus	NNP
homer-odyssey-850_03	32	2	answered	answer	VBD
homer-odyssey-850_03	32	3	boldly	boldly	RB
homer-odyssey-850_03	32	4	,	,	,
homer-odyssey-850_03	32	5	for	for	IN
homer-odyssey-850_03	32	6	Minerva	minerva	NNP
homer-odyssey-850_03	32	7	had	have	VBD
homer-odyssey-850_03	32	8	given	give	VBN
homer-odyssey-850_03	32	9	him	-PRON-	PRP
homer-odyssey-850_03	32	10	courage	courage	NN
homer-odyssey-850_03	32	11	to	to	TO
homer-odyssey-850_03	32	12	ask	ask	VB
homer-odyssey-850_03	32	13	about	about	IN
homer-odyssey-850_03	32	14	his	-PRON-	PRP$
homer-odyssey-850_03	32	15	father	father	NN
homer-odyssey-850_03	32	16	and	and	CC
homer-odyssey-850_03	32	17	get	get	VB
homer-odyssey-850_03	32	18	himself	-PRON-	PRP
homer-odyssey-850_03	32	19	a	a	DT
homer-odyssey-850_03	32	20	good	good	JJ
homer-odyssey-850_03	32	21	name	name	NN
homer-odyssey-850_03	32	22	.	.	.
homer-odyssey-850_03	33	1	"	"	``
homer-odyssey-850_03	33	2	Nestor	nestor	NNP
homer-odyssey-850_03	33	3	,	,	,
homer-odyssey-850_03	33	4	"	"	''
homer-odyssey-850_03	33	5	said	say	VBD
homer-odyssey-850_03	33	6	he	-PRON-	PRP
homer-odyssey-850_03	33	7	,	,	,
homer-odyssey-850_03	33	8	"	"	``
homer-odyssey-850_03	33	9	son	son	NN
homer-odyssey-850_03	33	10	of	of	IN
homer-odyssey-850_03	33	11	Neleus	neleus	NNP
homer-odyssey-850_03	33	12	,	,	,
homer-odyssey-850_03	33	13	honour	honour	NN
homer-odyssey-850_03	33	14	to	to	IN
homer-odyssey-850_03	33	15	the	the	DT
homer-odyssey-850_03	33	16	Achaean	achaean	JJ
homer-odyssey-850_03	33	17	name	name	NN
homer-odyssey-850_03	33	18	,	,	,
homer-odyssey-850_03	33	19	you	-PRON-	PRP
homer-odyssey-850_03	33	20	ask	ask	VBP
homer-odyssey-850_03	33	21	whence	whence	RB
homer-odyssey-850_03	33	22	we	-PRON-	PRP
homer-odyssey-850_03	33	23	come	come	VBP
homer-odyssey-850_03	33	24	,	,	,
homer-odyssey-850_03	33	25	and	and	CC
homer-odyssey-850_03	33	26	I	-PRON-	PRP
homer-odyssey-850_03	33	27	will	will	MD
homer-odyssey-850_03	33	28	tell	tell	VB
homer-odyssey-850_03	33	29	you	-PRON-	PRP
homer-odyssey-850_03	33	30	.	.	.
homer-odyssey-850_03	34	1	We	-PRON-	PRP
homer-odyssey-850_03	34	2	come	come	VBP
homer-odyssey-850_03	34	3	from	from	IN
homer-odyssey-850_03	34	4	Ithaca	ithaca	NNP
homer-odyssey-850_03	34	5	under	under	IN
homer-odyssey-850_03	34	6	Neritum	neritum	NNP
homer-odyssey-850_03	34	7	,	,	,
homer-odyssey-850_03	34	8	{	{	-LRB-
homer-odyssey-850_03	34	9	28	28	CD
homer-odyssey-850_03	34	10	}	}	-RRB-
homer-odyssey-850_03	34	11	and	and	CC
homer-odyssey-850_03	34	12	the	the	DT
homer-odyssey-850_03	34	13	matter	matter	NN
homer-odyssey-850_03	34	14	about	about	IN
homer-odyssey-850_03	34	15	which	which	WDT
homer-odyssey-850_03	34	16	I	-PRON-	PRP
homer-odyssey-850_03	34	17	would	would	MD
homer-odyssey-850_03	34	18	speak	speak	VB
homer-odyssey-850_03	34	19	is	be	VBZ
homer-odyssey-850_03	34	20	of	of	IN
homer-odyssey-850_03	34	21	private	private	JJ
homer-odyssey-850_03	34	22	not	not	RB
homer-odyssey-850_03	34	23	public	public	JJ
homer-odyssey-850_03	34	24	import	import	NN
homer-odyssey-850_03	34	25	.	.	.
homer-odyssey-850_03	35	1	I	-PRON-	PRP
homer-odyssey-850_03	35	2	seek	seek	VBP
homer-odyssey-850_03	35	3	news	news	NN
homer-odyssey-850_03	35	4	of	of	IN
homer-odyssey-850_03	35	5	my	-PRON-	PRP$
homer-odyssey-850_03	35	6	unhappy	unhappy	JJ
homer-odyssey-850_03	35	7	father	father	NN
homer-odyssey-850_03	35	8	Ulysses	ulysses	NNPS
homer-odyssey-850_03	35	9	,	,	,
homer-odyssey-850_03	35	10	who	who	WP
homer-odyssey-850_03	35	11	is	be	VBZ
homer-odyssey-850_03	35	12	said	say	VBN
homer-odyssey-850_03	35	13	to	to	TO
homer-odyssey-850_03	35	14	have	have	VB
homer-odyssey-850_03	35	15	sacked	sack	VBN
homer-odyssey-850_03	35	16	the	the	DT
homer-odyssey-850_03	35	17	town	town	NN
homer-odyssey-850_03	35	18	of	of	IN
homer-odyssey-850_03	35	19	Troy	troy	NNP
homer-odyssey-850_03	35	20	in	in	IN
homer-odyssey-850_03	35	21	company	company	NN
homer-odyssey-850_03	35	22	with	with	IN
homer-odyssey-850_03	35	23	yourself	-PRON-	PRP
homer-odyssey-850_03	35	24	.	.	.
homer-odyssey-850_03	36	1	We	-PRON-	PRP
homer-odyssey-850_03	36	2	know	know	VBP
homer-odyssey-850_03	36	3	what	what	WDT
homer-odyssey-850_03	36	4	fate	fate	NN
homer-odyssey-850_03	36	5	befell	befall	VBD
homer-odyssey-850_03	36	6	each	each	DT
homer-odyssey-850_03	36	7	one	one	CD
homer-odyssey-850_03	36	8	of	of	IN
homer-odyssey-850_03	36	9	the	the	DT
homer-odyssey-850_03	36	10	other	other	JJ
homer-odyssey-850_03	36	11	heroes	hero	NNS
homer-odyssey-850_03	36	12	who	who	WP
homer-odyssey-850_03	36	13	fought	fight	VBD
homer-odyssey-850_03	36	14	at	at	IN
homer-odyssey-850_03	36	15	Troy	troy	NNP
homer-odyssey-850_03	36	16	,	,	,
homer-odyssey-850_03	36	17	but	but	CC
homer-odyssey-850_03	36	18	as	as	IN
homer-odyssey-850_03	36	19	regards	regard	VBZ
homer-odyssey-850_03	36	20	Ulysses	ulysses	NNP
homer-odyssey-850_03	36	21	heaven	heaven	NNP
homer-odyssey-850_03	36	22	has	have	VBZ
homer-odyssey-850_03	36	23	hidden	hide	VBN
homer-odyssey-850_03	36	24	from	from	IN
homer-odyssey-850_03	36	25	us	-PRON-	PRP
homer-odyssey-850_03	36	26	the	the	DT
homer-odyssey-850_03	36	27	knowledge	knowledge	NN
homer-odyssey-850_03	36	28	even	even	RB
homer-odyssey-850_03	36	29	that	that	IN
homer-odyssey-850_03	36	30	he	-PRON-	PRP
homer-odyssey-850_03	36	31	is	be	VBZ
homer-odyssey-850_03	36	32	dead	dead	JJ
homer-odyssey-850_03	36	33	at	at	RB
homer-odyssey-850_03	36	34	all	all	RB
homer-odyssey-850_03	36	35	,	,	,
homer-odyssey-850_03	36	36	for	for	IN
homer-odyssey-850_03	36	37	no	no	DT
homer-odyssey-850_03	36	38	one	one	NN
homer-odyssey-850_03	36	39	can	can	MD
homer-odyssey-850_03	36	40	certify	certify	VB
homer-odyssey-850_03	36	41	us	-PRON-	PRP
homer-odyssey-850_03	36	42	in	in	IN
homer-odyssey-850_03	36	43	what	what	WP
homer-odyssey-850_03	36	44	place	place	NN
homer-odyssey-850_03	36	45	he	-PRON-	PRP
homer-odyssey-850_03	36	46	perished	perish	VBD
homer-odyssey-850_03	36	47	,	,	,
homer-odyssey-850_03	36	48	nor	nor	CC
homer-odyssey-850_03	36	49	say	say	VB
homer-odyssey-850_03	36	50	whether	whether	IN
homer-odyssey-850_03	36	51	he	-PRON-	PRP
homer-odyssey-850_03	36	52	fell	fall	VBD
homer-odyssey-850_03	36	53	in	in	IN
homer-odyssey-850_03	36	54	battle	battle	NN
homer-odyssey-850_03	36	55	on	on	IN
homer-odyssey-850_03	36	56	the	the	DT
homer-odyssey-850_03	36	57	mainland	mainland	NN
homer-odyssey-850_03	36	58	,	,	,
homer-odyssey-850_03	36	59	or	or	CC
homer-odyssey-850_03	36	60	was	be	VBD
homer-odyssey-850_03	36	61	lost	lose	VBN
homer-odyssey-850_03	36	62	at	at	IN
homer-odyssey-850_03	36	63	sea	sea	NN
homer-odyssey-850_03	36	64	amid	amid	IN
homer-odyssey-850_03	36	65	the	the	DT
homer-odyssey-850_03	36	66	waves	wave	NNS
homer-odyssey-850_03	36	67	of	of	IN
homer-odyssey-850_03	36	68	Amphitrite	amphitrite	NNP
homer-odyssey-850_03	36	69	.	.	.
homer-odyssey-850_03	37	1	Therefore	therefore	RB
homer-odyssey-850_03	37	2	I	-PRON-	PRP
homer-odyssey-850_03	37	3	am	be	VBP
homer-odyssey-850_03	37	4	suppliant	suppliant	JJ
homer-odyssey-850_03	37	5	at	at	IN
homer-odyssey-850_03	37	6	your	-PRON-	PRP$
homer-odyssey-850_03	37	7	knees	knee	NNS
homer-odyssey-850_03	37	8	,	,	,
homer-odyssey-850_03	37	9	if	if	IN
homer-odyssey-850_03	37	10	haply	haply	NN
homer-odyssey-850_03	37	11	you	-PRON-	PRP
homer-odyssey-850_03	37	12	may	may	MD
homer-odyssey-850_03	37	13	be	be	VB
homer-odyssey-850_03	37	14	pleased	pleased	JJ
homer-odyssey-850_03	37	15	to	to	TO
homer-odyssey-850_03	37	16	tell	tell	VB
homer-odyssey-850_03	37	17	me	-PRON-	PRP
homer-odyssey-850_03	37	18	of	of	IN
homer-odyssey-850_03	37	19	his	-PRON-	PRP$
homer-odyssey-850_03	37	20	melancholy	melancholy	JJ
homer-odyssey-850_03	37	21	end	end	NN
homer-odyssey-850_03	37	22	,	,	,
homer-odyssey-850_03	37	23	whether	whether	IN
homer-odyssey-850_03	37	24	you	-PRON-	PRP
homer-odyssey-850_03	37	25	saw	see	VBD
homer-odyssey-850_03	37	26	it	-PRON-	PRP
homer-odyssey-850_03	37	27	with	with	IN
homer-odyssey-850_03	37	28	your	-PRON-	PRP$
homer-odyssey-850_03	37	29	own	own	JJ
homer-odyssey-850_03	37	30	eyes	eye	NNS
homer-odyssey-850_03	37	31	,	,	,
homer-odyssey-850_03	37	32	or	or	CC
homer-odyssey-850_03	37	33	heard	hear	VBD
homer-odyssey-850_03	37	34	it	-PRON-	PRP
homer-odyssey-850_03	37	35	from	from	IN
homer-odyssey-850_03	37	36	some	some	DT
homer-odyssey-850_03	37	37	other	other	JJ
homer-odyssey-850_03	37	38	traveller	traveller	NN
homer-odyssey-850_03	37	39	,	,	,
homer-odyssey-850_03	37	40	for	for	IN
homer-odyssey-850_03	37	41	he	-PRON-	PRP
homer-odyssey-850_03	37	42	was	be	VBD
homer-odyssey-850_03	37	43	a	a	DT
homer-odyssey-850_03	37	44	man	man	NN
homer-odyssey-850_03	37	45	born	bear	VBN
homer-odyssey-850_03	37	46	to	to	IN
homer-odyssey-850_03	37	47	trouble	trouble	NN
homer-odyssey-850_03	37	48	.	.	.
homer-odyssey-850_03	38	1	Do	do	VB
homer-odyssey-850_03	38	2	not	not	RB
homer-odyssey-850_03	38	3	soften	soften	VB
homer-odyssey-850_03	38	4	things	thing	NNS
homer-odyssey-850_03	38	5	out	out	IN
homer-odyssey-850_03	38	6	of	of	IN
homer-odyssey-850_03	38	7	any	any	DT
homer-odyssey-850_03	38	8	pity	pity	NN
homer-odyssey-850_03	38	9	for	for	IN
homer-odyssey-850_03	38	10	me	-PRON-	PRP
homer-odyssey-850_03	38	11	,	,	,
homer-odyssey-850_03	38	12	but	but	CC
homer-odyssey-850_03	38	13	tell	tell	VB
homer-odyssey-850_03	38	14	me	-PRON-	PRP
homer-odyssey-850_03	38	15	in	in	IN
homer-odyssey-850_03	38	16	all	all	DT
homer-odyssey-850_03	38	17	plainness	plainness	NN
homer-odyssey-850_03	38	18	exactly	exactly	RB
homer-odyssey-850_03	38	19	what	what	WP
homer-odyssey-850_03	38	20	you	-PRON-	PRP
homer-odyssey-850_03	38	21	saw	see	VBD
homer-odyssey-850_03	38	22	.	.	.
homer-odyssey-850_03	39	1	If	if	IN
homer-odyssey-850_03	39	2	my	-PRON-	PRP$
homer-odyssey-850_03	39	3	brave	brave	JJ
homer-odyssey-850_03	39	4	father	father	NN
homer-odyssey-850_03	39	5	Ulysses	ulysses	NNPS
homer-odyssey-850_03	39	6	ever	ever	RB
homer-odyssey-850_03	39	7	did	do	VBD
homer-odyssey-850_03	39	8	you	-PRON-	PRP
homer-odyssey-850_03	39	9	loyal	loyal	JJ
homer-odyssey-850_03	39	10	service	service	NN
homer-odyssey-850_03	39	11	,	,	,
homer-odyssey-850_03	39	12	either	either	CC
homer-odyssey-850_03	39	13	by	by	IN
homer-odyssey-850_03	39	14	word	word	NN
homer-odyssey-850_03	39	15	or	or	CC
homer-odyssey-850_03	39	16	deed	deed	NN
homer-odyssey-850_03	39	17	,	,	,
homer-odyssey-850_03	39	18	when	when	WRB
homer-odyssey-850_03	39	19	you	-PRON-	PRP
homer-odyssey-850_03	39	20	Achaeans	achaeans	NNPS
homer-odyssey-850_03	39	21	were	be	VBD
homer-odyssey-850_03	39	22	harassed	harass	VBN
homer-odyssey-850_03	39	23	among	among	IN
homer-odyssey-850_03	39	24	the	the	DT
homer-odyssey-850_03	39	25	Trojans	trojans	NNPS
homer-odyssey-850_03	39	26	,	,	,
homer-odyssey-850_03	39	27	bear	bear	VB
homer-odyssey-850_03	39	28	it	-PRON-	PRP
homer-odyssey-850_03	39	29	in	in	IN
homer-odyssey-850_03	39	30	mind	mind	NN
homer-odyssey-850_03	39	31	now	now	RB
homer-odyssey-850_03	39	32	as	as	IN
homer-odyssey-850_03	39	33	in	in	IN
homer-odyssey-850_03	39	34	my	-PRON-	PRP$
homer-odyssey-850_03	39	35	favour	favour	NN
homer-odyssey-850_03	39	36	and	and	CC
homer-odyssey-850_03	39	37	tell	tell	VB
homer-odyssey-850_03	39	38	me	-PRON-	PRP
homer-odyssey-850_03	39	39	truly	truly	RB
homer-odyssey-850_03	39	40	all	all	DT
homer-odyssey-850_03	39	41	.	.	.
homer-odyssey-850_03	39	42	"	"	''
homer-odyssey-850_03	40	1	"	"	``
homer-odyssey-850_03	40	2	My	-PRON-	PRP$
homer-odyssey-850_03	40	3	friend	friend	NN
homer-odyssey-850_03	40	4	,	,	,
homer-odyssey-850_03	40	5	"	"	''
homer-odyssey-850_03	40	6	answered	answer	VBD
homer-odyssey-850_03	40	7	Nestor	nestor	NNP
homer-odyssey-850_03	40	8	,	,	,
homer-odyssey-850_03	40	9	"	"	``
homer-odyssey-850_03	40	10	you	-PRON-	PRP
homer-odyssey-850_03	40	11	recall	recall	VBP
homer-odyssey-850_03	40	12	a	a	DT
homer-odyssey-850_03	40	13	time	time	NN
homer-odyssey-850_03	40	14	of	of	IN
homer-odyssey-850_03	40	15	much	much	JJ
homer-odyssey-850_03	40	16	sorrow	sorrow	NN
homer-odyssey-850_03	40	17	to	to	IN
homer-odyssey-850_03	40	18	my	-PRON-	PRP$
homer-odyssey-850_03	40	19	mind	mind	NN
homer-odyssey-850_03	40	20	,	,	,
homer-odyssey-850_03	40	21	for	for	IN
homer-odyssey-850_03	40	22	the	the	DT
homer-odyssey-850_03	40	23	brave	brave	JJ
homer-odyssey-850_03	40	24	Achaeans	achaeans	NNPS
homer-odyssey-850_03	40	25	suffered	suffer	VBD
homer-odyssey-850_03	40	26	much	much	RB
homer-odyssey-850_03	40	27	both	both	DT
homer-odyssey-850_03	40	28	at	at	IN
homer-odyssey-850_03	40	29	sea	sea	NN
homer-odyssey-850_03	40	30	,	,	,
homer-odyssey-850_03	40	31	while	while	IN
homer-odyssey-850_03	40	32	privateering	privateer	VBG
homer-odyssey-850_03	40	33	under	under	IN
homer-odyssey-850_03	40	34	Achilles	achilles	NNPS
homer-odyssey-850_03	40	35	,	,	,
homer-odyssey-850_03	40	36	and	and	CC
homer-odyssey-850_03	40	37	when	when	WRB
homer-odyssey-850_03	40	38	fighting	fight	VBG
homer-odyssey-850_03	40	39	before	before	IN
homer-odyssey-850_03	40	40	the	the	DT
homer-odyssey-850_03	40	41	great	great	JJ
homer-odyssey-850_03	40	42	city	city	NN
homer-odyssey-850_03	40	43	of	of	IN
homer-odyssey-850_03	40	44	king	king	NN
homer-odyssey-850_03	40	45	Priam	priam	NNP
homer-odyssey-850_03	40	46	.	.	.
homer-odyssey-850_03	41	1	Our	-PRON-	PRP$
homer-odyssey-850_03	41	2	best	good	JJS
homer-odyssey-850_03	41	3	men	man	NNS
homer-odyssey-850_03	41	4	all	all	DT
homer-odyssey-850_03	41	5	of	of	IN
homer-odyssey-850_03	41	6	them	-PRON-	PRP
homer-odyssey-850_03	41	7	fell	fall	VBD
homer-odyssey-850_03	41	8	there--	there--	NNP
homer-odyssey-850_03	41	9	Ajax	ajax	NNP
homer-odyssey-850_03	41	10	,	,	,
homer-odyssey-850_03	41	11	Achilles	achilles	NNPS
homer-odyssey-850_03	41	12	,	,	,
homer-odyssey-850_03	41	13	Patroclus	patroclus	NNP
homer-odyssey-850_03	41	14	peer	peer	NN
homer-odyssey-850_03	41	15	of	of	IN
homer-odyssey-850_03	41	16	gods	god	NNS
homer-odyssey-850_03	41	17	in	in	IN
homer-odyssey-850_03	41	18	counsel	counsel	NN
homer-odyssey-850_03	41	19	,	,	,
homer-odyssey-850_03	41	20	and	and	CC
homer-odyssey-850_03	41	21	my	-PRON-	PRP$
homer-odyssey-850_03	41	22	own	own	JJ
homer-odyssey-850_03	41	23	dear	dear	JJ
homer-odyssey-850_03	41	24	son	son	NN
homer-odyssey-850_03	41	25	Antilochus	antilochus	NNP
homer-odyssey-850_03	41	26	,	,	,
homer-odyssey-850_03	41	27	a	a	DT
homer-odyssey-850_03	41	28	man	man	NN
homer-odyssey-850_03	41	29	singularly	singularly	RB
homer-odyssey-850_03	41	30	fleet	fleet	NN
homer-odyssey-850_03	41	31	of	of	IN
homer-odyssey-850_03	41	32	foot	foot	NN
homer-odyssey-850_03	41	33	and	and	CC
homer-odyssey-850_03	41	34	in	in	IN
homer-odyssey-850_03	41	35	fight	fight	NN
homer-odyssey-850_03	41	36	valiant	valiant	NN
homer-odyssey-850_03	41	37	.	.	.
homer-odyssey-850_03	42	1	But	but	CC
homer-odyssey-850_03	42	2	we	-PRON-	PRP
homer-odyssey-850_03	42	3	suffered	suffer	VBD
homer-odyssey-850_03	42	4	much	much	RB
homer-odyssey-850_03	42	5	more	more	JJR
homer-odyssey-850_03	42	6	than	than	IN
homer-odyssey-850_03	42	7	this	this	DT
homer-odyssey-850_03	42	8	;	;	:
homer-odyssey-850_03	42	9	what	what	WDT
homer-odyssey-850_03	42	10	mortal	mortal	NN
homer-odyssey-850_03	42	11	tongue	tongue	NN
homer-odyssey-850_03	42	12	indeed	indeed	RB
homer-odyssey-850_03	42	13	could	could	MD
homer-odyssey-850_03	42	14	tell	tell	VB
homer-odyssey-850_03	42	15	the	the	DT
homer-odyssey-850_03	42	16	whole	whole	JJ
homer-odyssey-850_03	42	17	story	story	NN
homer-odyssey-850_03	42	18	?	?	.
homer-odyssey-850_03	43	1	Though	though	IN
homer-odyssey-850_03	43	2	you	-PRON-	PRP
homer-odyssey-850_03	43	3	were	be	VBD
homer-odyssey-850_03	43	4	to	to	TO
homer-odyssey-850_03	43	5	stay	stay	VB
homer-odyssey-850_03	43	6	here	here	RB
homer-odyssey-850_03	43	7	and	and	CC
homer-odyssey-850_03	43	8	question	question	VB
homer-odyssey-850_03	43	9	me	-PRON-	PRP
homer-odyssey-850_03	43	10	for	for	IN
homer-odyssey-850_03	43	11	five	five	CD
homer-odyssey-850_03	43	12	years	year	NNS
homer-odyssey-850_03	43	13	,	,	,
homer-odyssey-850_03	43	14	or	or	CC
homer-odyssey-850_03	43	15	even	even	RB
homer-odyssey-850_03	43	16	six	six	CD
homer-odyssey-850_03	43	17	,	,	,
homer-odyssey-850_03	43	18	I	-PRON-	PRP
homer-odyssey-850_03	43	19	could	could	MD
homer-odyssey-850_03	43	20	not	not	RB
homer-odyssey-850_03	43	21	tell	tell	VB
homer-odyssey-850_03	43	22	you	-PRON-	PRP
homer-odyssey-850_03	43	23	all	all	DT
homer-odyssey-850_03	43	24	that	that	WDT
homer-odyssey-850_03	43	25	the	the	DT
homer-odyssey-850_03	43	26	Achaeans	achaeans	NNPS
homer-odyssey-850_03	43	27	suffered	suffer	VBD
homer-odyssey-850_03	43	28	,	,	,
homer-odyssey-850_03	43	29	and	and	CC
homer-odyssey-850_03	43	30	you	-PRON-	PRP
homer-odyssey-850_03	43	31	would	would	MD
homer-odyssey-850_03	43	32	turn	turn	VB
homer-odyssey-850_03	43	33	homeward	homeward	VB
homer-odyssey-850_03	43	34	weary	weary	JJ
homer-odyssey-850_03	43	35	of	of	IN
homer-odyssey-850_03	43	36	my	-PRON-	PRP$
homer-odyssey-850_03	43	37	tale	tale	NN
homer-odyssey-850_03	43	38	before	before	IN
homer-odyssey-850_03	43	39	it	-PRON-	PRP
homer-odyssey-850_03	43	40	ended	end	VBD
homer-odyssey-850_03	43	41	.	.	.
homer-odyssey-850_03	44	1	Nine	nine	CD
homer-odyssey-850_03	44	2	long	long	JJ
homer-odyssey-850_03	44	3	years	year	NNS
homer-odyssey-850_03	44	4	did	do	VBD
homer-odyssey-850_03	44	5	we	-PRON-	PRP
homer-odyssey-850_03	44	6	try	try	VB
homer-odyssey-850_03	44	7	every	every	DT
homer-odyssey-850_03	44	8	kind	kind	NN
homer-odyssey-850_03	44	9	of	of	IN
homer-odyssey-850_03	44	10	stratagem	stratagem	NN
homer-odyssey-850_03	44	11	,	,	,
homer-odyssey-850_03	44	12	but	but	CC
homer-odyssey-850_03	44	13	the	the	DT
homer-odyssey-850_03	44	14	hand	hand	NN
homer-odyssey-850_03	44	15	of	of	IN
homer-odyssey-850_03	44	16	heaven	heaven	NNP
homer-odyssey-850_03	44	17	was	be	VBD
homer-odyssey-850_03	44	18	against	against	IN
homer-odyssey-850_03	44	19	us	-PRON-	PRP
homer-odyssey-850_03	44	20	;	;	:
homer-odyssey-850_03	44	21	during	during	IN
homer-odyssey-850_03	44	22	all	all	PDT
homer-odyssey-850_03	44	23	this	this	DT
homer-odyssey-850_03	44	24	time	time	NN
homer-odyssey-850_03	44	25	there	there	EX
homer-odyssey-850_03	44	26	was	be	VBD
homer-odyssey-850_03	44	27	no	no	DT
homer-odyssey-850_03	44	28	one	one	NN
homer-odyssey-850_03	44	29	who	who	WP
homer-odyssey-850_03	44	30	could	could	MD
homer-odyssey-850_03	44	31	compare	compare	VB
homer-odyssey-850_03	44	32	with	with	IN
homer-odyssey-850_03	44	33	your	-PRON-	PRP$
homer-odyssey-850_03	44	34	father	father	NN
homer-odyssey-850_03	44	35	in	in	IN
homer-odyssey-850_03	44	36	subtlety--	subtlety--	NN
homer-odyssey-850_03	44	37	if	if	IN
homer-odyssey-850_03	44	38	indeed	indeed	RB
homer-odyssey-850_03	44	39	you	-PRON-	PRP
homer-odyssey-850_03	44	40	are	be	VBP
homer-odyssey-850_03	44	41	his	-PRON-	PRP$
homer-odyssey-850_03	44	42	son--	son--	JJ
homer-odyssey-850_03	44	43	I	-PRON-	PRP
homer-odyssey-850_03	44	44	can	can	MD
homer-odyssey-850_03	44	45	hardly	hardly	RB
homer-odyssey-850_03	44	46	believe	believe	VB
homer-odyssey-850_03	44	47	my	-PRON-	PRP$
homer-odyssey-850_03	44	48	eyes--	eyes--	NN
homer-odyssey-850_03	44	49	and	and	CC
homer-odyssey-850_03	44	50	you	-PRON-	PRP
homer-odyssey-850_03	44	51	talk	talk	VBP
homer-odyssey-850_03	44	52	just	just	RB
homer-odyssey-850_03	44	53	like	like	IN
homer-odyssey-850_03	44	54	him	-PRON-	PRP
homer-odyssey-850_03	44	55	too	too	RB
homer-odyssey-850_03	44	56	--no	--no	:
homer-odyssey-850_03	44	57	one	one	PRP
homer-odyssey-850_03	44	58	would	would	MD
homer-odyssey-850_03	44	59	say	say	VB
homer-odyssey-850_03	44	60	that	that	IN
homer-odyssey-850_03	44	61	people	people	NNS
homer-odyssey-850_03	44	62	of	of	IN
homer-odyssey-850_03	44	63	such	such	JJ
homer-odyssey-850_03	44	64	different	different	JJ
homer-odyssey-850_03	44	65	ages	age	NNS
homer-odyssey-850_03	44	66	could	could	MD
homer-odyssey-850_03	44	67	speak	speak	VB
homer-odyssey-850_03	44	68	so	so	RB
homer-odyssey-850_03	44	69	much	much	RB
homer-odyssey-850_03	44	70	alike	alike	RB
homer-odyssey-850_03	44	71	.	.	.
homer-odyssey-850_03	45	1	He	-PRON-	PRP
homer-odyssey-850_03	45	2	and	and	CC
homer-odyssey-850_03	45	3	I	-PRON-	PRP
homer-odyssey-850_03	45	4	never	never	RB
homer-odyssey-850_03	45	5	had	have	VBD
homer-odyssey-850_03	45	6	any	any	DT
homer-odyssey-850_03	45	7	kind	kind	NN
homer-odyssey-850_03	45	8	of	of	IN
homer-odyssey-850_03	45	9	difference	difference	NN
homer-odyssey-850_03	45	10	from	from	IN
homer-odyssey-850_03	45	11	first	first	RB
homer-odyssey-850_03	45	12	to	to	TO
homer-odyssey-850_03	45	13	last	last	VB
homer-odyssey-850_03	45	14	neither	neither	CC
homer-odyssey-850_03	45	15	in	in	IN
homer-odyssey-850_03	45	16	camp	camp	NN
homer-odyssey-850_03	45	17	nor	nor	CC
homer-odyssey-850_03	45	18	council	council	NN
homer-odyssey-850_03	45	19	,	,	,
homer-odyssey-850_03	45	20	but	but	CC
homer-odyssey-850_03	45	21	in	in	IN
homer-odyssey-850_03	45	22	singleness	singleness	NN
homer-odyssey-850_03	45	23	of	of	IN
homer-odyssey-850_03	45	24	heart	heart	NN
homer-odyssey-850_03	45	25	and	and	CC
homer-odyssey-850_03	45	26	purpose	purpose	NN
homer-odyssey-850_03	45	27	we	-PRON-	PRP
homer-odyssey-850_03	45	28	advised	advise	VBD
homer-odyssey-850_03	45	29	the	the	DT
homer-odyssey-850_03	45	30	Argives	argives	NNPS
homer-odyssey-850_03	45	31	how	how	WRB
homer-odyssey-850_03	45	32	all	all	DT
homer-odyssey-850_03	45	33	might	may	MD
homer-odyssey-850_03	45	34	be	be	VB
homer-odyssey-850_03	45	35	ordered	order	VBN
homer-odyssey-850_03	45	36	for	for	IN
homer-odyssey-850_03	45	37	the	the	DT
homer-odyssey-850_03	45	38	best	good	JJS
homer-odyssey-850_03	45	39	.	.	.
homer-odyssey-850_03	46	1	"	"	``
homer-odyssey-850_03	46	2	When	when	WRB
homer-odyssey-850_03	46	3	,	,	,
homer-odyssey-850_03	46	4	however	however	RB
homer-odyssey-850_03	46	5	,	,	,
homer-odyssey-850_03	46	6	we	-PRON-	PRP
homer-odyssey-850_03	46	7	had	have	VBD
homer-odyssey-850_03	46	8	sacked	sack	VBN
homer-odyssey-850_03	46	9	the	the	DT
homer-odyssey-850_03	46	10	city	city	NN
homer-odyssey-850_03	46	11	of	of	IN
homer-odyssey-850_03	46	12	Priam	priam	NNP
homer-odyssey-850_03	46	13	,	,	,
homer-odyssey-850_03	46	14	and	and	CC
homer-odyssey-850_03	46	15	were	be	VBD
homer-odyssey-850_03	46	16	setting	set	VBG
homer-odyssey-850_03	46	17	sail	sail	NN
homer-odyssey-850_03	46	18	in	in	IN
homer-odyssey-850_03	46	19	our	-PRON-	PRP$
homer-odyssey-850_03	46	20	ships	ship	NNS
homer-odyssey-850_03	46	21	as	as	IN
homer-odyssey-850_03	46	22	heaven	heaven	NNP
homer-odyssey-850_03	46	23	had	have	VBD
homer-odyssey-850_03	46	24	dispersed	disperse	VBN
homer-odyssey-850_03	46	25	us	-PRON-	PRP
homer-odyssey-850_03	46	26	,	,	,
homer-odyssey-850_03	46	27	then	then	RB
homer-odyssey-850_03	46	28	Jove	jove	NNP
homer-odyssey-850_03	46	29	saw	see	VBD
homer-odyssey-850_03	46	30	fit	fit	JJ
homer-odyssey-850_03	46	31	to	to	TO
homer-odyssey-850_03	46	32	vex	vex	VB
homer-odyssey-850_03	46	33	the	the	DT
homer-odyssey-850_03	46	34	Argives	argive	NNS
homer-odyssey-850_03	46	35	on	on	IN
homer-odyssey-850_03	46	36	their	-PRON-	PRP$
homer-odyssey-850_03	46	37	homeward	homeward	NN
homer-odyssey-850_03	46	38	voyage	voyage	NN
homer-odyssey-850_03	46	39	;	;	:
homer-odyssey-850_03	46	40	for	for	IN
homer-odyssey-850_03	46	41	they	-PRON-	PRP
homer-odyssey-850_03	46	42	had	have	VBD
homer-odyssey-850_03	46	43	not	not	RB
homer-odyssey-850_03	46	44	all	all	DT
homer-odyssey-850_03	46	45	been	be	VBN
homer-odyssey-850_03	46	46	either	either	CC
homer-odyssey-850_03	46	47	wise	wise	JJ
homer-odyssey-850_03	46	48	or	or	CC
homer-odyssey-850_03	46	49	understanding	understanding	NN
homer-odyssey-850_03	46	50	,	,	,
homer-odyssey-850_03	46	51	and	and	CC
homer-odyssey-850_03	46	52	hence	hence	RB
homer-odyssey-850_03	46	53	many	many	JJ
homer-odyssey-850_03	46	54	came	come	VBD
homer-odyssey-850_03	46	55	to	to	IN
homer-odyssey-850_03	46	56	a	a	DT
homer-odyssey-850_03	46	57	bad	bad	JJ
homer-odyssey-850_03	46	58	end	end	NN
homer-odyssey-850_03	46	59	through	through	IN
homer-odyssey-850_03	46	60	the	the	DT
homer-odyssey-850_03	46	61	displeasure	displeasure	NN
homer-odyssey-850_03	46	62	of	of	IN
homer-odyssey-850_03	46	63	Jove	jove	NNP
homer-odyssey-850_03	46	64	's	's	POS
homer-odyssey-850_03	46	65	daughter	daughter	NN
homer-odyssey-850_03	46	66	Minerva	minerva	NNP
homer-odyssey-850_03	46	67	,	,	,
homer-odyssey-850_03	46	68	who	who	WP
homer-odyssey-850_03	46	69	brought	bring	VBD
homer-odyssey-850_03	46	70	about	about	RP
homer-odyssey-850_03	46	71	a	a	DT
homer-odyssey-850_03	46	72	quarrel	quarrel	NN
homer-odyssey-850_03	46	73	between	between	IN
homer-odyssey-850_03	46	74	the	the	DT
homer-odyssey-850_03	46	75	two	two	CD
homer-odyssey-850_03	46	76	sons	son	NNS
homer-odyssey-850_03	46	77	of	of	IN
homer-odyssey-850_03	46	78	Atreus	atreus	NNP
homer-odyssey-850_03	46	79	.	.	.
homer-odyssey-850_03	47	1	"	"	``
homer-odyssey-850_03	47	2	The	the	DT
homer-odyssey-850_03	47	3	sons	son	NNS
homer-odyssey-850_03	47	4	of	of	IN
homer-odyssey-850_03	47	5	Atreus	atreus	NNP
homer-odyssey-850_03	47	6	called	call	VBD
homer-odyssey-850_03	47	7	a	a	DT
homer-odyssey-850_03	47	8	meeting	meeting	NN
homer-odyssey-850_03	47	9	which	which	WDT
homer-odyssey-850_03	47	10	was	be	VBD
homer-odyssey-850_03	47	11	not	not	RB
homer-odyssey-850_03	47	12	as	as	IN
homer-odyssey-850_03	47	13	it	-PRON-	PRP
homer-odyssey-850_03	47	14	should	should	MD
homer-odyssey-850_03	47	15	be	be	VB
homer-odyssey-850_03	47	16	,	,	,
homer-odyssey-850_03	47	17	for	for	IN
homer-odyssey-850_03	47	18	it	-PRON-	PRP
homer-odyssey-850_03	47	19	was	be	VBD
homer-odyssey-850_03	47	20	sunset	sunset	VBN
homer-odyssey-850_03	47	21	and	and	CC
homer-odyssey-850_03	47	22	the	the	DT
homer-odyssey-850_03	47	23	Achaeans	achaeans	NNPS
homer-odyssey-850_03	47	24	were	be	VBD
homer-odyssey-850_03	47	25	heavy	heavy	JJ
homer-odyssey-850_03	47	26	with	with	IN
homer-odyssey-850_03	47	27	wine	wine	NN
homer-odyssey-850_03	47	28	.	.	.
homer-odyssey-850_03	48	1	When	when	WRB
homer-odyssey-850_03	48	2	they	-PRON-	PRP
homer-odyssey-850_03	48	3	explained	explain	VBD
homer-odyssey-850_03	48	4	why	why	WRB
homer-odyssey-850_03	48	5	they	-PRON-	PRP
homer-odyssey-850_03	48	6	had	have	VBD
homer-odyssey-850_03	48	7	called	call	VBN
homer-odyssey-850_03	48	8	the	the	DT
homer-odyssey-850_03	48	9	people	people	NNS
homer-odyssey-850_03	48	10	together	together	RB
homer-odyssey-850_03	48	11	,	,	,
homer-odyssey-850_03	48	12	it	-PRON-	PRP
homer-odyssey-850_03	48	13	seemed	seem	VBD
homer-odyssey-850_03	48	14	that	that	IN
homer-odyssey-850_03	48	15	Menelaus	menelaus	NNP
homer-odyssey-850_03	48	16	was	be	VBD
homer-odyssey-850_03	48	17	for	for	IN
homer-odyssey-850_03	48	18	sailing	sail	VBG
homer-odyssey-850_03	48	19	homeward	homeward	NN
homer-odyssey-850_03	48	20	at	at	IN
homer-odyssey-850_03	48	21	once	once	RB
homer-odyssey-850_03	48	22	,	,	,
homer-odyssey-850_03	48	23	and	and	CC
homer-odyssey-850_03	48	24	this	this	DT
homer-odyssey-850_03	48	25	displeased	displease	VBD
homer-odyssey-850_03	48	26	Agamemnon	agamemnon	NNP
homer-odyssey-850_03	48	27	,	,	,
homer-odyssey-850_03	48	28	who	who	WP
homer-odyssey-850_03	48	29	thought	think	VBD
homer-odyssey-850_03	48	30	that	that	IN
homer-odyssey-850_03	48	31	we	-PRON-	PRP
homer-odyssey-850_03	48	32	should	should	MD
homer-odyssey-850_03	48	33	wait	wait	VB
homer-odyssey-850_03	48	34	till	till	IN
homer-odyssey-850_03	48	35	we	-PRON-	PRP
homer-odyssey-850_03	48	36	had	have	VBD
homer-odyssey-850_03	48	37	offered	offer	VBN
homer-odyssey-850_03	48	38	hecatombs	hecatomb	NNS
homer-odyssey-850_03	48	39	to	to	TO
homer-odyssey-850_03	48	40	appease	appease	VB
homer-odyssey-850_03	48	41	the	the	DT
homer-odyssey-850_03	48	42	anger	anger	NN
homer-odyssey-850_03	48	43	of	of	IN
homer-odyssey-850_03	48	44	Minerva	minerva	NNP
homer-odyssey-850_03	48	45	.	.	.
homer-odyssey-850_03	49	1	Fool	fool	NN
homer-odyssey-850_03	49	2	that	that	IN
homer-odyssey-850_03	49	3	he	-PRON-	PRP
homer-odyssey-850_03	49	4	was	be	VBD
homer-odyssey-850_03	49	5	,	,	,
homer-odyssey-850_03	49	6	he	-PRON-	PRP
homer-odyssey-850_03	49	7	might	may	MD
homer-odyssey-850_03	49	8	have	have	VB
homer-odyssey-850_03	49	9	known	know	VBN
homer-odyssey-850_03	49	10	that	that	IN
homer-odyssey-850_03	49	11	he	-PRON-	PRP
homer-odyssey-850_03	49	12	would	would	MD
homer-odyssey-850_03	49	13	not	not	RB
homer-odyssey-850_03	49	14	prevail	prevail	VB
homer-odyssey-850_03	49	15	with	with	IN
homer-odyssey-850_03	49	16	her	-PRON-	PRP
homer-odyssey-850_03	49	17	,	,	,
homer-odyssey-850_03	49	18	for	for	IN
homer-odyssey-850_03	49	19	when	when	WRB
homer-odyssey-850_03	49	20	the	the	DT
homer-odyssey-850_03	49	21	gods	god	NNS
homer-odyssey-850_03	49	22	have	have	VBP
homer-odyssey-850_03	49	23	made	make	VBN
homer-odyssey-850_03	49	24	up	up	RP
homer-odyssey-850_03	49	25	their	-PRON-	PRP$
homer-odyssey-850_03	49	26	minds	mind	NNS
homer-odyssey-850_03	49	27	they	-PRON-	PRP
homer-odyssey-850_03	49	28	do	do	VBP
homer-odyssey-850_03	49	29	not	not	RB
homer-odyssey-850_03	49	30	change	change	VB
homer-odyssey-850_03	49	31	them	-PRON-	PRP
homer-odyssey-850_03	49	32	lightly	lightly	RB
homer-odyssey-850_03	49	33	.	.	.
homer-odyssey-850_03	50	1	So	so	RB
homer-odyssey-850_03	50	2	the	the	DT
homer-odyssey-850_03	50	3	two	two	CD
homer-odyssey-850_03	50	4	stood	stand	VBD
homer-odyssey-850_03	50	5	bandying	bandy	VBG
homer-odyssey-850_03	50	6	hard	hard	JJ
homer-odyssey-850_03	50	7	words	word	NNS
homer-odyssey-850_03	50	8	,	,	,
homer-odyssey-850_03	50	9	whereon	whereon	VB
homer-odyssey-850_03	50	10	the	the	DT
homer-odyssey-850_03	50	11	Achaeans	achaeans	NNPS
homer-odyssey-850_03	50	12	sprang	spring	VBD
homer-odyssey-850_03	50	13	to	to	IN
homer-odyssey-850_03	50	14	their	-PRON-	PRP$
homer-odyssey-850_03	50	15	feet	foot	NNS
homer-odyssey-850_03	50	16	with	with	IN
homer-odyssey-850_03	50	17	a	a	DT
homer-odyssey-850_03	50	18	cry	cry	NN
homer-odyssey-850_03	50	19	that	that	WDT
homer-odyssey-850_03	50	20	rent	rent	VB
homer-odyssey-850_03	50	21	the	the	DT
homer-odyssey-850_03	50	22	air	air	NN
homer-odyssey-850_03	50	23	,	,	,
homer-odyssey-850_03	50	24	and	and	CC
homer-odyssey-850_03	50	25	were	be	VBD
homer-odyssey-850_03	50	26	of	of	IN
homer-odyssey-850_03	50	27	two	two	CD
homer-odyssey-850_03	50	28	minds	mind	NNS
homer-odyssey-850_03	50	29	as	as	IN
homer-odyssey-850_03	50	30	to	to	IN
homer-odyssey-850_03	50	31	what	what	WP
homer-odyssey-850_03	50	32	they	-PRON-	PRP
homer-odyssey-850_03	50	33	should	should	MD
homer-odyssey-850_03	50	34	do	do	VB
homer-odyssey-850_03	50	35	.	.	.
homer-odyssey-850_03	51	1	"	"	``
homer-odyssey-850_03	51	2	That	that	DT
homer-odyssey-850_03	51	3	night	night	NN
homer-odyssey-850_03	51	4	we	-PRON-	PRP
homer-odyssey-850_03	51	5	rested	rest	VBD
homer-odyssey-850_03	51	6	and	and	CC
homer-odyssey-850_03	51	7	nursed	nurse	VBD
homer-odyssey-850_03	51	8	our	-PRON-	PRP$
homer-odyssey-850_03	51	9	anger	anger	NN
homer-odyssey-850_03	51	10	,	,	,
homer-odyssey-850_03	51	11	for	for	IN
homer-odyssey-850_03	51	12	Jove	jove	NNP
homer-odyssey-850_03	51	13	was	be	VBD
homer-odyssey-850_03	51	14	hatching	hatch	VBG
homer-odyssey-850_03	51	15	mischief	mischief	NN
homer-odyssey-850_03	51	16	against	against	IN
homer-odyssey-850_03	51	17	us	-PRON-	PRP
homer-odyssey-850_03	51	18	.	.	.
homer-odyssey-850_03	52	1	But	but	CC
homer-odyssey-850_03	52	2	in	in	IN
homer-odyssey-850_03	52	3	the	the	DT
homer-odyssey-850_03	52	4	morning	morning	NN
homer-odyssey-850_03	52	5	some	some	DT
homer-odyssey-850_03	52	6	of	of	IN
homer-odyssey-850_03	52	7	us	-PRON-	PRP
homer-odyssey-850_03	52	8	drew	draw	VBD
homer-odyssey-850_03	52	9	our	-PRON-	PRP$
homer-odyssey-850_03	52	10	ships	ship	NNS
homer-odyssey-850_03	52	11	into	into	IN
homer-odyssey-850_03	52	12	the	the	DT
homer-odyssey-850_03	52	13	water	water	NN
homer-odyssey-850_03	52	14	and	and	CC
homer-odyssey-850_03	52	15	put	put	VB
homer-odyssey-850_03	52	16	our	-PRON-	PRP$
homer-odyssey-850_03	52	17	goods	good	NNS
homer-odyssey-850_03	52	18	with	with	IN
homer-odyssey-850_03	52	19	our	-PRON-	PRP$
homer-odyssey-850_03	52	20	women	woman	NNS
homer-odyssey-850_03	52	21	on	on	IN
homer-odyssey-850_03	52	22	board	board	NN
homer-odyssey-850_03	52	23	,	,	,
homer-odyssey-850_03	52	24	while	while	IN
homer-odyssey-850_03	52	25	the	the	DT
homer-odyssey-850_03	52	26	rest	rest	NN
homer-odyssey-850_03	52	27	,	,	,
homer-odyssey-850_03	52	28	about	about	IN
homer-odyssey-850_03	52	29	half	half	NN
homer-odyssey-850_03	52	30	in	in	IN
homer-odyssey-850_03	52	31	number	number	NN
homer-odyssey-850_03	52	32	,	,	,
homer-odyssey-850_03	52	33	stayed	stay	VBD
homer-odyssey-850_03	52	34	behind	behind	RB
homer-odyssey-850_03	52	35	with	with	IN
homer-odyssey-850_03	52	36	Agamemnon	agamemnon	NNP
homer-odyssey-850_03	52	37	.	.	.
homer-odyssey-850_03	53	1	We--	we--	VB
homer-odyssey-850_03	53	2	the	the	DT
homer-odyssey-850_03	53	3	other	other	JJ
homer-odyssey-850_03	53	4	half--	half--	JJ
homer-odyssey-850_03	53	5	embarked	embark	VBN
homer-odyssey-850_03	53	6	and	and	CC
homer-odyssey-850_03	53	7	sailed	sail	VBD
homer-odyssey-850_03	53	8	;	;	:
homer-odyssey-850_03	53	9	and	and	CC
homer-odyssey-850_03	53	10	the	the	DT
homer-odyssey-850_03	53	11	ships	ship	NNS
homer-odyssey-850_03	53	12	went	go	VBD
homer-odyssey-850_03	53	13	well	well	RB
homer-odyssey-850_03	53	14	,	,	,
homer-odyssey-850_03	53	15	for	for	IN
homer-odyssey-850_03	53	16	heaven	heaven	NNP
homer-odyssey-850_03	53	17	had	have	VBD
homer-odyssey-850_03	53	18	smoothed	smooth	VBN
homer-odyssey-850_03	53	19	the	the	DT
homer-odyssey-850_03	53	20	sea	sea	NN
homer-odyssey-850_03	53	21	.	.	.
homer-odyssey-850_03	54	1	When	when	WRB
homer-odyssey-850_03	54	2	we	-PRON-	PRP
homer-odyssey-850_03	54	3	reached	reach	VBD
homer-odyssey-850_03	54	4	Tenedos	tenedos	NNPS
homer-odyssey-850_03	54	5	we	-PRON-	PRP
homer-odyssey-850_03	54	6	offered	offer	VBD
homer-odyssey-850_03	54	7	sacrifices	sacrifice	NNS
homer-odyssey-850_03	54	8	to	to	IN
homer-odyssey-850_03	54	9	the	the	DT
homer-odyssey-850_03	54	10	gods	god	NNS
homer-odyssey-850_03	54	11	,	,	,
homer-odyssey-850_03	54	12	for	for	IN
homer-odyssey-850_03	54	13	we	-PRON-	PRP
homer-odyssey-850_03	54	14	were	be	VBD
homer-odyssey-850_03	54	15	longing	long	VBG
homer-odyssey-850_03	54	16	to	to	TO
homer-odyssey-850_03	54	17	get	get	VB
homer-odyssey-850_03	54	18	home	home	RB
homer-odyssey-850_03	54	19	;	;	:
homer-odyssey-850_03	54	20	cruel	cruel	JJ
homer-odyssey-850_03	54	21	Jove	jove	NN
homer-odyssey-850_03	54	22	,	,	,
homer-odyssey-850_03	54	23	however	however	RB
homer-odyssey-850_03	54	24	,	,	,
homer-odyssey-850_03	54	25	did	do	VBD
homer-odyssey-850_03	54	26	not	not	RB
homer-odyssey-850_03	54	27	yet	yet	RB
homer-odyssey-850_03	54	28	mean	mean	VB
homer-odyssey-850_03	54	29	that	that	IN
homer-odyssey-850_03	54	30	we	-PRON-	PRP
homer-odyssey-850_03	54	31	should	should	MD
homer-odyssey-850_03	54	32	do	do	VB
homer-odyssey-850_03	54	33	so	so	RB
homer-odyssey-850_03	54	34	,	,	,
homer-odyssey-850_03	54	35	and	and	CC
homer-odyssey-850_03	54	36	raised	raise	VBD
homer-odyssey-850_03	54	37	a	a	DT
homer-odyssey-850_03	54	38	second	second	JJ
homer-odyssey-850_03	54	39	quarrel	quarrel	NN
homer-odyssey-850_03	54	40	in	in	IN
homer-odyssey-850_03	54	41	the	the	DT
homer-odyssey-850_03	54	42	course	course	NN
homer-odyssey-850_03	54	43	of	of	IN
homer-odyssey-850_03	54	44	which	which	WDT
homer-odyssey-850_03	54	45	some	some	DT
homer-odyssey-850_03	54	46	among	among	IN
homer-odyssey-850_03	54	47	us	-PRON-	PRP
homer-odyssey-850_03	54	48	turned	turn	VBD
homer-odyssey-850_03	54	49	their	-PRON-	PRP$
homer-odyssey-850_03	54	50	ships	ship	NNS
homer-odyssey-850_03	54	51	back	back	RB
homer-odyssey-850_03	54	52	again	again	RB
homer-odyssey-850_03	54	53	,	,	,
homer-odyssey-850_03	54	54	and	and	CC
homer-odyssey-850_03	54	55	sailed	sail	VBD
homer-odyssey-850_03	54	56	away	away	RB
homer-odyssey-850_03	54	57	under	under	IN
homer-odyssey-850_03	54	58	Ulysses	ulyss	NNS
homer-odyssey-850_03	54	59	to	to	TO
homer-odyssey-850_03	54	60	make	make	VB
homer-odyssey-850_03	54	61	their	-PRON-	PRP$
homer-odyssey-850_03	54	62	peace	peace	NN
homer-odyssey-850_03	54	63	with	with	IN
homer-odyssey-850_03	54	64	Agamemnon	agamemnon	NNP
homer-odyssey-850_03	54	65	;	;	:
homer-odyssey-850_03	54	66	but	but	CC
homer-odyssey-850_03	54	67	I	-PRON-	PRP
homer-odyssey-850_03	54	68	,	,	,
homer-odyssey-850_03	54	69	and	and	CC
homer-odyssey-850_03	54	70	all	all	PDT
homer-odyssey-850_03	54	71	the	the	DT
homer-odyssey-850_03	54	72	ships	ship	NNS
homer-odyssey-850_03	54	73	that	that	WDT
homer-odyssey-850_03	54	74	were	be	VBD
homer-odyssey-850_03	54	75	with	with	IN
homer-odyssey-850_03	54	76	me	-PRON-	PRP
homer-odyssey-850_03	54	77	pressed	press	VBN
homer-odyssey-850_03	54	78	forward	forward	RB
homer-odyssey-850_03	54	79	,	,	,
homer-odyssey-850_03	54	80	for	for	IN
homer-odyssey-850_03	54	81	I	-PRON-	PRP
homer-odyssey-850_03	54	82	saw	see	VBD
homer-odyssey-850_03	54	83	that	that	DT
homer-odyssey-850_03	54	84	mischief	mischief	NN
homer-odyssey-850_03	54	85	was	be	VBD
homer-odyssey-850_03	54	86	brewing	brew	VBG
homer-odyssey-850_03	54	87	.	.	.
homer-odyssey-850_03	55	1	The	the	DT
homer-odyssey-850_03	55	2	son	son	NN
homer-odyssey-850_03	55	3	of	of	IN
homer-odyssey-850_03	55	4	Tydeus	tydeus	NNP
homer-odyssey-850_03	55	5	went	go	VBD
homer-odyssey-850_03	55	6	on	on	RP
homer-odyssey-850_03	55	7	also	also	RB
homer-odyssey-850_03	55	8	with	with	IN
homer-odyssey-850_03	55	9	me	-PRON-	PRP
homer-odyssey-850_03	55	10	,	,	,
homer-odyssey-850_03	55	11	and	and	CC
homer-odyssey-850_03	55	12	his	-PRON-	PRP$
homer-odyssey-850_03	55	13	crews	crew	NNS
homer-odyssey-850_03	55	14	with	with	IN
homer-odyssey-850_03	55	15	him	-PRON-	PRP
homer-odyssey-850_03	55	16	.	.	.
homer-odyssey-850_03	56	1	Later	later	RB
homer-odyssey-850_03	56	2	on	on	IN
homer-odyssey-850_03	56	3	Menelaus	menelaus	NNP
homer-odyssey-850_03	56	4	joined	join	VBD
homer-odyssey-850_03	56	5	us	-PRON-	PRP
homer-odyssey-850_03	56	6	at	at	IN
homer-odyssey-850_03	56	7	Lesbos	lesbos	NNP
homer-odyssey-850_03	56	8	,	,	,
homer-odyssey-850_03	56	9	and	and	CC
homer-odyssey-850_03	56	10	found	find	VBD
homer-odyssey-850_03	56	11	us	-PRON-	PRP
homer-odyssey-850_03	56	12	making	make	VBG
homer-odyssey-850_03	56	13	up	up	RP
homer-odyssey-850_03	56	14	our	-PRON-	PRP$
homer-odyssey-850_03	56	15	minds	mind	NNS
homer-odyssey-850_03	56	16	about	about	IN
homer-odyssey-850_03	56	17	our	-PRON-	PRP$
homer-odyssey-850_03	56	18	course--	course--	NNS
homer-odyssey-850_03	56	19	for	for	IN
homer-odyssey-850_03	56	20	we	-PRON-	PRP
homer-odyssey-850_03	56	21	did	do	VBD
homer-odyssey-850_03	56	22	not	not	RB
homer-odyssey-850_03	56	23	know	know	VB
homer-odyssey-850_03	56	24	whether	whether	IN
homer-odyssey-850_03	56	25	to	to	TO
homer-odyssey-850_03	56	26	go	go	VB
homer-odyssey-850_03	56	27	outside	outside	IN
homer-odyssey-850_03	56	28	Chios	chios	NNP
homer-odyssey-850_03	56	29	by	by	IN
homer-odyssey-850_03	56	30	the	the	DT
homer-odyssey-850_03	56	31	island	island	NN
homer-odyssey-850_03	56	32	of	of	IN
homer-odyssey-850_03	56	33	Psyra	psyra	NNP
homer-odyssey-850_03	56	34	,	,	,
homer-odyssey-850_03	56	35	keeping	keep	VBG
homer-odyssey-850_03	56	36	this	this	DT
homer-odyssey-850_03	56	37	to	to	IN
homer-odyssey-850_03	56	38	our	-PRON-	PRP$
homer-odyssey-850_03	56	39	left	left	NN
homer-odyssey-850_03	56	40	,	,	,
homer-odyssey-850_03	56	41	or	or	CC
homer-odyssey-850_03	56	42	inside	inside	IN
homer-odyssey-850_03	56	43	Chios	chios	NNP
homer-odyssey-850_03	56	44	,	,	,
homer-odyssey-850_03	56	45	over	over	RB
homer-odyssey-850_03	56	46	against	against	IN
homer-odyssey-850_03	56	47	the	the	DT
homer-odyssey-850_03	56	48	stormy	stormy	JJ
homer-odyssey-850_03	56	49	headland	headland	NN
homer-odyssey-850_03	56	50	of	of	IN
homer-odyssey-850_03	56	51	Mimas	mimas	NNP
homer-odyssey-850_03	56	52	.	.	.
homer-odyssey-850_03	57	1	So	so	RB
homer-odyssey-850_03	57	2	we	-PRON-	PRP
homer-odyssey-850_03	57	3	asked	ask	VBD
homer-odyssey-850_03	57	4	heaven	heaven	NNP
homer-odyssey-850_03	57	5	for	for	IN
homer-odyssey-850_03	57	6	a	a	DT
homer-odyssey-850_03	57	7	sign	sign	NN
homer-odyssey-850_03	57	8	,	,	,
homer-odyssey-850_03	57	9	and	and	CC
homer-odyssey-850_03	57	10	were	be	VBD
homer-odyssey-850_03	57	11	shown	show	VBN
homer-odyssey-850_03	57	12	one	one	CD
homer-odyssey-850_03	57	13	to	to	IN
homer-odyssey-850_03	57	14	the	the	DT
homer-odyssey-850_03	57	15	effect	effect	NN
homer-odyssey-850_03	57	16	that	that	IN
homer-odyssey-850_03	57	17	we	-PRON-	PRP
homer-odyssey-850_03	57	18	should	should	MD
homer-odyssey-850_03	57	19	be	be	VB
homer-odyssey-850_03	57	20	soonest	soon	JJS
homer-odyssey-850_03	57	21	out	out	IN
homer-odyssey-850_03	57	22	of	of	IN
homer-odyssey-850_03	57	23	danger	danger	NN
homer-odyssey-850_03	57	24	if	if	IN
homer-odyssey-850_03	57	25	we	-PRON-	PRP
homer-odyssey-850_03	57	26	headed	head	VBD
homer-odyssey-850_03	57	27	our	-PRON-	PRP$
homer-odyssey-850_03	57	28	ships	ship	NNS
homer-odyssey-850_03	57	29	across	across	IN
homer-odyssey-850_03	57	30	the	the	DT
homer-odyssey-850_03	57	31	open	open	JJ
homer-odyssey-850_03	57	32	sea	sea	NN
homer-odyssey-850_03	57	33	to	to	IN
homer-odyssey-850_03	57	34	Euboea	euboea	NNP
homer-odyssey-850_03	57	35	.	.	.
homer-odyssey-850_03	58	1	This	this	DT
homer-odyssey-850_03	58	2	we	-PRON-	PRP
homer-odyssey-850_03	58	3	therefore	therefore	RB
homer-odyssey-850_03	58	4	did	do	VBD
homer-odyssey-850_03	58	5	,	,	,
homer-odyssey-850_03	58	6	and	and	CC
homer-odyssey-850_03	58	7	a	a	DT
homer-odyssey-850_03	58	8	fair	fair	JJ
homer-odyssey-850_03	58	9	wind	wind	NN
homer-odyssey-850_03	58	10	sprang	spring	VBD
homer-odyssey-850_03	58	11	up	up	RP
homer-odyssey-850_03	58	12	which	which	WDT
homer-odyssey-850_03	58	13	gave	give	VBD
homer-odyssey-850_03	58	14	us	-PRON-	PRP
homer-odyssey-850_03	58	15	a	a	DT
homer-odyssey-850_03	58	16	quick	quick	JJ
homer-odyssey-850_03	58	17	passage	passage	NN
homer-odyssey-850_03	58	18	during	during	IN
homer-odyssey-850_03	58	19	the	the	DT
homer-odyssey-850_03	58	20	night	night	NN
homer-odyssey-850_03	58	21	to	to	IN
homer-odyssey-850_03	58	22	Geraestus	geraestus	NNP
homer-odyssey-850_03	58	23	,	,	,
homer-odyssey-850_03	58	24	{	{	-LRB-
homer-odyssey-850_03	58	25	29	29	CD
homer-odyssey-850_03	58	26	}	}	-RRB-
homer-odyssey-850_03	58	27	where	where	WRB
homer-odyssey-850_03	58	28	we	-PRON-	PRP
homer-odyssey-850_03	58	29	offered	offer	VBD
homer-odyssey-850_03	58	30	many	many	JJ
homer-odyssey-850_03	58	31	sacrifices	sacrifice	NNS
homer-odyssey-850_03	58	32	to	to	IN
homer-odyssey-850_03	58	33	Neptune	neptune	NNP
homer-odyssey-850_03	58	34	for	for	IN
homer-odyssey-850_03	58	35	having	have	VBG
homer-odyssey-850_03	58	36	helped	help	VBN
homer-odyssey-850_03	58	37	us	-PRON-	PRP
homer-odyssey-850_03	58	38	so	so	RB
homer-odyssey-850_03	58	39	far	far	RB
homer-odyssey-850_03	58	40	on	on	IN
homer-odyssey-850_03	58	41	our	-PRON-	PRP$
homer-odyssey-850_03	58	42	way	way	NN
homer-odyssey-850_03	58	43	.	.	.
homer-odyssey-850_03	59	1	Four	four	CD
homer-odyssey-850_03	59	2	days	day	NNS
homer-odyssey-850_03	59	3	later	later	RB
homer-odyssey-850_03	59	4	Diomed	diomed	NNP
homer-odyssey-850_03	59	5	and	and	CC
homer-odyssey-850_03	59	6	his	-PRON-	PRP$
homer-odyssey-850_03	59	7	men	man	NNS
homer-odyssey-850_03	59	8	stationed	station	VBD
homer-odyssey-850_03	59	9	their	-PRON-	PRP$
homer-odyssey-850_03	59	10	ships	ship	NNS
homer-odyssey-850_03	59	11	in	in	IN
homer-odyssey-850_03	59	12	Argos	argos	NNP
homer-odyssey-850_03	59	13	,	,	,
homer-odyssey-850_03	59	14	but	but	CC
homer-odyssey-850_03	59	15	I	-PRON-	PRP
homer-odyssey-850_03	59	16	held	hold	VBD
homer-odyssey-850_03	59	17	on	on	RP
homer-odyssey-850_03	59	18	for	for	IN
homer-odyssey-850_03	59	19	Pylos	pylos	NNP
homer-odyssey-850_03	59	20	,	,	,
homer-odyssey-850_03	59	21	and	and	CC
homer-odyssey-850_03	59	22	the	the	DT
homer-odyssey-850_03	59	23	wind	wind	NN
homer-odyssey-850_03	59	24	never	never	RB
homer-odyssey-850_03	59	25	fell	fall	VBD
homer-odyssey-850_03	59	26	light	light	NN
homer-odyssey-850_03	59	27	from	from	IN
homer-odyssey-850_03	59	28	the	the	DT
homer-odyssey-850_03	59	29	day	day	NN
homer-odyssey-850_03	59	30	when	when	WRB
homer-odyssey-850_03	59	31	heaven	heaven	NNP
homer-odyssey-850_03	59	32	first	first	RB
homer-odyssey-850_03	59	33	made	make	VBD
homer-odyssey-850_03	59	34	it	-PRON-	PRP
homer-odyssey-850_03	59	35	fair	fair	JJ
homer-odyssey-850_03	59	36	for	for	IN
homer-odyssey-850_03	59	37	me	-PRON-	PRP
homer-odyssey-850_03	59	38	.	.	.
homer-odyssey-850_03	60	1	"	"	``
homer-odyssey-850_03	60	2	Therefore	therefore	RB
homer-odyssey-850_03	60	3	,	,	,
homer-odyssey-850_03	60	4	my	-PRON-	PRP$
homer-odyssey-850_03	60	5	dear	dear	JJ
homer-odyssey-850_03	60	6	young	young	JJ
homer-odyssey-850_03	60	7	friend	friend	NN
homer-odyssey-850_03	60	8	,	,	,
homer-odyssey-850_03	60	9	I	-PRON-	PRP
homer-odyssey-850_03	60	10	returned	return	VBD
homer-odyssey-850_03	60	11	without	without	IN
homer-odyssey-850_03	60	12	hearing	hear	VBG
homer-odyssey-850_03	60	13	anything	anything	NN
homer-odyssey-850_03	60	14	about	about	IN
homer-odyssey-850_03	60	15	the	the	DT
homer-odyssey-850_03	60	16	others	other	NNS
homer-odyssey-850_03	60	17	.	.	.
homer-odyssey-850_03	61	1	I	-PRON-	PRP
homer-odyssey-850_03	61	2	know	know	VBP
homer-odyssey-850_03	61	3	neither	neither	CC
homer-odyssey-850_03	61	4	who	who	WP
homer-odyssey-850_03	61	5	got	get	VBD
homer-odyssey-850_03	61	6	home	home	NN
homer-odyssey-850_03	61	7	safely	safely	RB
homer-odyssey-850_03	61	8	nor	nor	CC
homer-odyssey-850_03	61	9	who	who	WP
homer-odyssey-850_03	61	10	were	be	VBD
homer-odyssey-850_03	61	11	lost	lose	VBN
homer-odyssey-850_03	61	12	but	but	CC
homer-odyssey-850_03	61	13	,	,	,
homer-odyssey-850_03	61	14	as	as	IN
homer-odyssey-850_03	61	15	in	in	IN
homer-odyssey-850_03	61	16	duty	duty	NN
homer-odyssey-850_03	61	17	bound	bind	VBN
homer-odyssey-850_03	61	18	,	,	,
homer-odyssey-850_03	61	19	I	-PRON-	PRP
homer-odyssey-850_03	61	20	will	will	MD
homer-odyssey-850_03	61	21	give	give	VB
homer-odyssey-850_03	61	22	you	-PRON-	PRP
homer-odyssey-850_03	61	23	without	without	IN
homer-odyssey-850_03	61	24	reserve	reserve	NN
homer-odyssey-850_03	61	25	the	the	DT
homer-odyssey-850_03	61	26	reports	report	NNS
homer-odyssey-850_03	61	27	that	that	WDT
homer-odyssey-850_03	61	28	have	have	VBP
homer-odyssey-850_03	61	29	reached	reach	VBN
homer-odyssey-850_03	61	30	me	-PRON-	PRP
homer-odyssey-850_03	61	31	since	since	IN
homer-odyssey-850_03	61	32	I	-PRON-	PRP
homer-odyssey-850_03	61	33	have	have	VBP
homer-odyssey-850_03	61	34	been	be	VBN
homer-odyssey-850_03	61	35	here	here	RB
homer-odyssey-850_03	61	36	in	in	IN
homer-odyssey-850_03	61	37	my	-PRON-	PRP$
homer-odyssey-850_03	61	38	own	own	JJ
homer-odyssey-850_03	61	39	house	house	NN
homer-odyssey-850_03	61	40	.	.	.
homer-odyssey-850_03	62	1	They	-PRON-	PRP
homer-odyssey-850_03	62	2	say	say	VBP
homer-odyssey-850_03	62	3	the	the	DT
homer-odyssey-850_03	62	4	Myrmidons	myrmidons	NNPS
[...]
homer-odyssey-850_03	149	4	the	the	DT
homer-odyssey-850_03	149	5	heifer	heifer	NN
homer-odyssey-850_03	149	6	's	's	POS
homer-odyssey-850_03	149	7	head	head	NN
homer-odyssey-850_03	149	8	from	from	IN
homer-odyssey-850_03	149	9	off	off	IN
homer-odyssey-850_03	149	10	the	the	DT
homer-odyssey-850_03	149	11	ground	ground	NN
homer-odyssey-850_03	149	12	,	,	,
homer-odyssey-850_03	149	13	and	and	CC
homer-odyssey-850_03	149	14	Pisistratus	pisistratus	NNP
homer-odyssey-850_03	149	15	cut	cut	VBD
homer-odyssey-850_03	149	16	her	-PRON-	PRP$
homer-odyssey-850_03	149	17	throat	throat	NN
homer-odyssey-850_03	149	18	.	.	.
homer-odyssey-850_03	150	1	When	when	WRB
homer-odyssey-850_03	150	2	she	-PRON-	PRP
homer-odyssey-850_03	150	3	had	have	VBD
homer-odyssey-850_03	150	4	done	do	VBN
homer-odyssey-850_03	150	5	bleeding	bleed	VBG
homer-odyssey-850_03	150	6	and	and	CC
homer-odyssey-850_03	150	7	was	be	VBD
homer-odyssey-850_03	150	8	quite	quite	RB
homer-odyssey-850_03	150	9	dead	dead	JJ
homer-odyssey-850_03	150	10	,	,	,
homer-odyssey-850_03	150	11	they	-PRON-	PRP
homer-odyssey-850_03	150	12	cut	cut	VBD
homer-odyssey-850_03	150	13	her	-PRON-	PRP
homer-odyssey-850_03	150	14	up	up	RP
homer-odyssey-850_03	150	15	.	.	.
homer-odyssey-850_03	151	1	They	-PRON-	PRP
homer-odyssey-850_03	151	2	cut	cut	VBD
homer-odyssey-850_03	151	3	out	out	RP
homer-odyssey-850_03	151	4	the	the	DT
homer-odyssey-850_03	151	5	thigh	thigh	NN
homer-odyssey-850_03	151	6	bones	bone	NNS
homer-odyssey-850_03	151	7	all	all	DT
homer-odyssey-850_03	151	8	in	in	IN
homer-odyssey-850_03	151	9	due	due	JJ
homer-odyssey-850_03	151	10	course	course	NN
homer-odyssey-850_03	151	11	,	,	,
homer-odyssey-850_03	151	12	wrapped	wrap	VBD
homer-odyssey-850_03	151	13	them	-PRON-	PRP
homer-odyssey-850_03	151	14	round	round	RB
homer-odyssey-850_03	151	15	in	in	IN
homer-odyssey-850_03	151	16	two	two	CD
homer-odyssey-850_03	151	17	layers	layer	NNS
homer-odyssey-850_03	151	18	of	of	IN
homer-odyssey-850_03	151	19	fat	fat	NN
homer-odyssey-850_03	151	20	,	,	,
homer-odyssey-850_03	151	21	and	and	CC
homer-odyssey-850_03	151	22	set	set	VB
homer-odyssey-850_03	151	23	some	some	DT
homer-odyssey-850_03	151	24	pieces	piece	NNS
homer-odyssey-850_03	151	25	of	of	IN
homer-odyssey-850_03	151	26	raw	raw	JJ
homer-odyssey-850_03	151	27	meat	meat	NN
homer-odyssey-850_03	151	28	on	on	IN
homer-odyssey-850_03	151	29	the	the	DT
homer-odyssey-850_03	151	30	top	top	NN
homer-odyssey-850_03	151	31	of	of	IN
homer-odyssey-850_03	151	32	them	-PRON-	PRP
homer-odyssey-850_03	151	33	;	;	:
homer-odyssey-850_03	151	34	then	then	RB
homer-odyssey-850_03	151	35	Nestor	nestor	NNP
homer-odyssey-850_03	151	36	laid	lay	VBD
homer-odyssey-850_03	151	37	them	-PRON-	PRP
homer-odyssey-850_03	151	38	upon	upon	IN
homer-odyssey-850_03	151	39	the	the	DT
homer-odyssey-850_03	151	40	wood	wood	NN
homer-odyssey-850_03	151	41	fire	fire	NN
homer-odyssey-850_03	151	42	and	and	CC
homer-odyssey-850_03	151	43	poured	pour	VBD
homer-odyssey-850_03	151	44	wine	wine	NN
homer-odyssey-850_03	151	45	over	over	IN
homer-odyssey-850_03	151	46	them	-PRON-	PRP
homer-odyssey-850_03	151	47	,	,	,
homer-odyssey-850_03	151	48	while	while	IN
homer-odyssey-850_03	151	49	the	the	DT
homer-odyssey-850_03	151	50	young	young	JJ
homer-odyssey-850_03	151	51	men	man	NNS
homer-odyssey-850_03	151	52	stood	stand	VBD
homer-odyssey-850_03	151	53	near	near	IN
homer-odyssey-850_03	151	54	him	-PRON-	PRP
homer-odyssey-850_03	151	55	with	with	IN
homer-odyssey-850_03	151	56	five-	five-	NN
homer-odyssey-850_03	151	57	pronged	pronged	JJ
homer-odyssey-850_03	151	58	spits	spit	NNS
homer-odyssey-850_03	151	59	in	in	IN
homer-odyssey-850_03	151	60	their	-PRON-	PRP$
homer-odyssey-850_03	151	61	hands	hand	NNS
homer-odyssey-850_03	151	62	.	.	.
homer-odyssey-850_03	152	1	When	when	WRB
homer-odyssey-850_03	152	2	the	the	DT
homer-odyssey-850_03	152	3	thighs	thigh	NNS
homer-odyssey-850_03	152	4	were	be	VBD
homer-odyssey-850_03	152	5	burned	burn	VBN
homer-odyssey-850_03	152	6	and	and	CC
homer-odyssey-850_03	152	7	they	-PRON-	PRP
homer-odyssey-850_03	152	8	had	have	VBD
homer-odyssey-850_03	152	9	tasted	taste	VBN
homer-odyssey-850_03	152	10	the	the	DT
homer-odyssey-850_03	152	11	inward	inward	JJ
homer-odyssey-850_03	152	12	meats	meat	NNS
homer-odyssey-850_03	152	13	,	,	,
homer-odyssey-850_03	152	14	they	-PRON-	PRP
homer-odyssey-850_03	152	15	cut	cut	VBD
homer-odyssey-850_03	152	16	the	the	DT
homer-odyssey-850_03	152	17	rest	rest	NN
homer-odyssey-850_03	152	18	of	of	IN
homer-odyssey-850_03	152	19	the	the	DT
homer-odyssey-850_03	152	20	meat	meat	NN
homer-odyssey-850_03	152	21	up	up	RB
homer-odyssey-850_03	152	22	small	small	JJ
homer-odyssey-850_03	152	23	,	,	,
homer-odyssey-850_03	152	24	put	put	VBD
homer-odyssey-850_03	152	25	the	the	DT
homer-odyssey-850_03	152	26	pieces	piece	NNS
homer-odyssey-850_03	152	27	on	on	IN
homer-odyssey-850_03	152	28	the	the	DT
homer-odyssey-850_03	152	29	spits	spit	NNS
homer-odyssey-850_03	152	30	and	and	CC
homer-odyssey-850_03	152	31	toasted	toast	VBD
homer-odyssey-850_03	152	32	them	-PRON-	PRP
homer-odyssey-850_03	152	33	over	over	IN
homer-odyssey-850_03	152	34	the	the	DT
homer-odyssey-850_03	152	35	fire	fire	NN
homer-odyssey-850_03	152	36	.	.	.
homer-odyssey-850_03	153	1	Meanwhile	meanwhile	RB
homer-odyssey-850_03	153	2	lovely	lovely	JJ
homer-odyssey-850_03	153	3	Polycaste	polycaste	NNP
homer-odyssey-850_03	153	4	,	,	,
homer-odyssey-850_03	153	5	Nestor	nestor	NNP
homer-odyssey-850_03	153	6	's	's	POS
homer-odyssey-850_03	153	7	youngest	young	JJS
homer-odyssey-850_03	153	8	daughter	daughter	NN
homer-odyssey-850_03	153	9	,	,	,
homer-odyssey-850_03	153	10	washed	wash	VBD
homer-odyssey-850_03	153	11	Telemachus	telemachus	NNP
homer-odyssey-850_03	153	12	.	.	.
homer-odyssey-850_03	154	1	When	when	WRB
homer-odyssey-850_03	154	2	she	-PRON-	PRP
homer-odyssey-850_03	154	3	had	have	VBD
homer-odyssey-850_03	154	4	washed	wash	VBN
homer-odyssey-850_03	154	5	him	-PRON-	PRP
homer-odyssey-850_03	154	6	and	and	CC
homer-odyssey-850_03	154	7	anointed	anoint	VBD
homer-odyssey-850_03	154	8	him	-PRON-	PRP
homer-odyssey-850_03	154	9	with	with	IN
homer-odyssey-850_03	154	10	oil	oil	NN
homer-odyssey-850_03	154	11	,	,	,
homer-odyssey-850_03	154	12	she	-PRON-	PRP
homer-odyssey-850_03	154	13	brought	bring	VBD
homer-odyssey-850_03	154	14	him	-PRON-	PRP
homer-odyssey-850_03	154	15	a	a	DT
homer-odyssey-850_03	154	16	fair	fair	JJ
homer-odyssey-850_03	154	17	mantle	mantle	NN
homer-odyssey-850_03	154	18	and	and	CC
homer-odyssey-850_03	154	19	shirt	shirt	NN
homer-odyssey-850_03	154	20	,	,	,
homer-odyssey-850_03	154	21	{	{	-LRB-
homer-odyssey-850_03	154	22	33	33	CD
homer-odyssey-850_03	154	23	}	}	-RRB-
homer-odyssey-850_03	154	24	and	and	CC
homer-odyssey-850_03	154	25	he	-PRON-	PRP
homer-odyssey-850_03	154	26	looked	look	VBD
homer-odyssey-850_03	154	27	like	like	IN
homer-odyssey-850_03	154	28	a	a	DT
homer-odyssey-850_03	154	29	god	god	NN
homer-odyssey-850_03	154	30	as	as	IN
homer-odyssey-850_03	154	31	he	-PRON-	PRP
homer-odyssey-850_03	154	32	came	come	VBD
homer-odyssey-850_03	154	33	from	from	IN
homer-odyssey-850_03	154	34	the	the	DT
homer-odyssey-850_03	154	35	bath	bath	NN
homer-odyssey-850_03	154	36	and	and	CC
homer-odyssey-850_03	154	37	took	take	VBD
homer-odyssey-850_03	154	38	his	-PRON-	PRP$
homer-odyssey-850_03	154	39	seat	seat	NN
homer-odyssey-850_03	154	40	by	by	IN
homer-odyssey-850_03	154	41	the	the	DT
homer-odyssey-850_03	154	42	side	side	NN
homer-odyssey-850_03	154	43	of	of	IN
homer-odyssey-850_03	154	44	Nestor	nestor	NNP
homer-odyssey-850_03	154	45	.	.	.
homer-odyssey-850_03	155	1	When	when	WRB
homer-odyssey-850_03	155	2	the	the	DT
homer-odyssey-850_03	155	3	outer	outer	JJ
homer-odyssey-850_03	155	4	meats	meat	NNS
homer-odyssey-850_03	155	5	were	be	VBD
homer-odyssey-850_03	155	6	done	do	VBN
homer-odyssey-850_03	155	7	they	-PRON-	PRP
homer-odyssey-850_03	155	8	drew	draw	VBD
homer-odyssey-850_03	155	9	them	-PRON-	PRP
homer-odyssey-850_03	155	10	off	off	IN
homer-odyssey-850_03	155	11	the	the	DT
homer-odyssey-850_03	155	12	spits	spit	NNS
homer-odyssey-850_03	155	13	and	and	CC
homer-odyssey-850_03	155	14	sat	sit	VBD
homer-odyssey-850_03	155	15	down	down	RP
homer-odyssey-850_03	155	16	to	to	IN
homer-odyssey-850_03	155	17	dinner	dinner	NN
homer-odyssey-850_03	155	18	where	where	WRB
homer-odyssey-850_03	155	19	they	-PRON-	PRP
homer-odyssey-850_03	155	20	were	be	VBD
homer-odyssey-850_03	155	21	waited	wait	VBN
homer-odyssey-850_03	155	22	upon	upon	IN
homer-odyssey-850_03	155	23	by	by	IN
homer-odyssey-850_03	155	24	some	some	DT
homer-odyssey-850_03	155	25	worthy	worthy	JJ
homer-odyssey-850_03	155	26	henchmen	henchman	NNS
homer-odyssey-850_03	155	27	,	,	,
homer-odyssey-850_03	155	28	who	who	WP
homer-odyssey-850_03	155	29	kept	keep	VBD
homer-odyssey-850_03	155	30	pouring	pour	VBG
homer-odyssey-850_03	155	31	them	-PRON-	PRP
homer-odyssey-850_03	155	32	out	out	RP
homer-odyssey-850_03	155	33	their	-PRON-	PRP$
homer-odyssey-850_03	155	34	wine	wine	NN
homer-odyssey-850_03	155	35	in	in	IN
homer-odyssey-850_03	155	36	cups	cup	NNS
homer-odyssey-850_03	155	37	of	of	IN
homer-odyssey-850_03	155	38	gold	gold	NN
homer-odyssey-850_03	155	39	.	.	.
homer-odyssey-850_03	156	1	As	as	RB
homer-odyssey-850_03	156	2	soon	soon	RB
homer-odyssey-850_03	156	3	as	as	IN
homer-odyssey-850_03	156	4	they	-PRON-	PRP
homer-odyssey-850_03	156	5	had	have	VBD
homer-odyssey-850_03	156	6	had	have	VBN
homer-odyssey-850_03	156	7	enough	enough	JJ
homer-odyssey-850_03	156	8	to	to	TO
homer-odyssey-850_03	156	9	eat	eat	VB
homer-odyssey-850_03	156	10	and	and	CC
homer-odyssey-850_03	156	11	drink	drink	VB
homer-odyssey-850_03	156	12	Nestor	nestor	NNP
homer-odyssey-850_03	156	13	said	say	VBD
homer-odyssey-850_03	156	14	,	,	,
homer-odyssey-850_03	156	15	"	"	``
homer-odyssey-850_03	156	16	Sons	son	NNS
homer-odyssey-850_03	156	17	,	,	,
homer-odyssey-850_03	156	18	put	put	VBD
homer-odyssey-850_03	156	19	Telemachus	telemachus	NNP
homer-odyssey-850_03	156	20	's	's	POS
homer-odyssey-850_03	156	21	horses	horse	NNS
homer-odyssey-850_03	156	22	to	to	IN
homer-odyssey-850_03	156	23	the	the	DT
homer-odyssey-850_03	156	24	chariot	chariot	NN
homer-odyssey-850_03	156	25	that	that	WDT
homer-odyssey-850_03	156	26	he	-PRON-	PRP
homer-odyssey-850_03	156	27	may	may	MD
homer-odyssey-850_03	156	28	start	start	VB
homer-odyssey-850_03	156	29	at	at	IN
homer-odyssey-850_03	156	30	once	once	RB
homer-odyssey-850_03	156	31	.	.	.
homer-odyssey-850_03	156	32	"	"	''
homer-odyssey-850_03	157	1	Thus	thus	RB
homer-odyssey-850_03	157	2	did	do	VBD
homer-odyssey-850_03	157	3	he	-PRON-	PRP
homer-odyssey-850_03	157	4	speak	speak	VB
homer-odyssey-850_03	157	5	,	,	,
homer-odyssey-850_03	157	6	and	and	CC
homer-odyssey-850_03	157	7	they	-PRON-	PRP
homer-odyssey-850_03	157	8	did	do	VBD
homer-odyssey-850_03	157	9	even	even	RB
homer-odyssey-850_03	157	10	as	as	IN
homer-odyssey-850_03	157	11	he	-PRON-	PRP
homer-odyssey-850_03	157	12	had	have	VBD
homer-odyssey-850_03	157	13	said	say	VBN
homer-odyssey-850_03	157	14	,	,	,
homer-odyssey-850_03	157	15	and	and	CC
homer-odyssey-850_03	157	16	yoked	yoke	VBD
homer-odyssey-850_03	157	17	the	the	DT
homer-odyssey-850_03	157	18	fleet	fleet	NN
homer-odyssey-850_03	157	19	horses	horse	NNS
homer-odyssey-850_03	157	20	to	to	IN
homer-odyssey-850_03	157	21	the	the	DT
homer-odyssey-850_03	157	22	chariot	chariot	NN
homer-odyssey-850_03	157	23	.	.	.
homer-odyssey-850_03	158	1	The	the	DT
homer-odyssey-850_03	158	2	housekeeper	housekeeper	NN
homer-odyssey-850_03	158	3	packed	pack	VBD
homer-odyssey-850_03	158	4	them	-PRON-	PRP
homer-odyssey-850_03	158	5	up	up	RP
homer-odyssey-850_03	158	6	a	a	DT
homer-odyssey-850_03	158	7	provision	provision	NN
homer-odyssey-850_03	158	8	of	of	IN
homer-odyssey-850_03	158	9	bread	bread	NN
homer-odyssey-850_03	158	10	,	,	,
homer-odyssey-850_03	158	11	wine	wine	NN
homer-odyssey-850_03	158	12	,	,	,
homer-odyssey-850_03	158	13	and	and	CC
homer-odyssey-850_03	158	14	sweet	sweet	JJ
homer-odyssey-850_03	158	15	meats	meat	NNS
homer-odyssey-850_03	158	16	fit	fit	JJ
homer-odyssey-850_03	158	17	for	for	IN
homer-odyssey-850_03	158	18	the	the	DT
homer-odyssey-850_03	158	19	sons	son	NNS
homer-odyssey-850_03	158	20	of	of	IN
homer-odyssey-850_03	158	21	princes	prince	NNS
homer-odyssey-850_03	158	22	.	.	.
homer-odyssey-850_03	159	1	Then	then	RB
homer-odyssey-850_03	159	2	Telemachus	telemachus	NNP
homer-odyssey-850_03	159	3	got	get	VBD
homer-odyssey-850_03	159	4	into	into	IN
homer-odyssey-850_03	159	5	the	the	DT
homer-odyssey-850_03	159	6	chariot	chariot	NN
homer-odyssey-850_03	159	7	,	,	,
homer-odyssey-850_03	159	8	while	while	IN
homer-odyssey-850_03	159	9	Pisistratus	pisistratus	NNP
homer-odyssey-850_03	159	10	gathered	gather	VBD
homer-odyssey-850_03	159	11	up	up	RP
homer-odyssey-850_03	159	12	the	the	DT
homer-odyssey-850_03	159	13	reins	rein	NNS
homer-odyssey-850_03	159	14	and	and	CC
homer-odyssey-850_03	159	15	took	take	VBD
homer-odyssey-850_03	159	16	his	-PRON-	PRP$
homer-odyssey-850_03	159	17	seat	seat	NN
homer-odyssey-850_03	159	18	beside	beside	IN
homer-odyssey-850_03	159	19	him	-PRON-	PRP
homer-odyssey-850_03	159	20	.	.	.
homer-odyssey-850_03	160	1	He	-PRON-	PRP
homer-odyssey-850_03	160	2	lashed	lash	VBD
homer-odyssey-850_03	160	3	the	the	DT
homer-odyssey-850_03	160	4	horses	horse	NNS
homer-odyssey-850_03	160	5	on	on	IN
homer-odyssey-850_03	160	6	and	and	CC
homer-odyssey-850_03	160	7	they	-PRON-	PRP
homer-odyssey-850_03	160	8	flew	fly	VBD
homer-odyssey-850_03	160	9	forward	forward	RB
homer-odyssey-850_03	160	10	nothing	nothing	NN
homer-odyssey-850_03	160	11	loth	loth	JJ
homer-odyssey-850_03	160	12	into	into	IN
homer-odyssey-850_03	160	13	the	the	DT
homer-odyssey-850_03	160	14	open	open	JJ
homer-odyssey-850_03	160	15	country	country	NN
homer-odyssey-850_03	160	16	,	,	,
homer-odyssey-850_03	160	17	leaving	leave	VBG
homer-odyssey-850_03	160	18	the	the	DT
homer-odyssey-850_03	160	19	high	high	JJ
homer-odyssey-850_03	160	20	citadel	citadel	NN
homer-odyssey-850_03	160	21	of	of	IN
homer-odyssey-850_03	160	22	Pylos	pylos	NNP
homer-odyssey-850_03	160	23	behind	behind	IN
homer-odyssey-850_03	160	24	them	-PRON-	PRP
homer-odyssey-850_03	160	25	.	.	.
homer-odyssey-850_03	161	1	All	all	DT
homer-odyssey-850_03	161	2	that	that	DT
homer-odyssey-850_03	161	3	day	day	NN
homer-odyssey-850_03	161	4	did	do	VBD
homer-odyssey-850_03	161	5	they	-PRON-	PRP
homer-odyssey-850_03	161	6	travel	travel	VB
homer-odyssey-850_03	161	7	,	,	,
homer-odyssey-850_03	161	8	swaying	sway	VBG
homer-odyssey-850_03	161	9	the	the	DT
homer-odyssey-850_03	161	10	yoke	yoke	NN
homer-odyssey-850_03	161	11	upon	upon	IN
homer-odyssey-850_03	161	12	their	-PRON-	PRP$
homer-odyssey-850_03	161	13	necks	neck	NNS
homer-odyssey-850_03	161	14	till	till	IN
homer-odyssey-850_03	161	15	the	the	DT
homer-odyssey-850_03	161	16	sun	sun	NN
homer-odyssey-850_03	161	17	went	go	VBD
homer-odyssey-850_03	161	18	down	down	RP
homer-odyssey-850_03	161	19	and	and	CC
homer-odyssey-850_03	161	20	darkness	darkness	NN
homer-odyssey-850_03	161	21	was	be	VBD
homer-odyssey-850_03	161	22	over	over	IN
homer-odyssey-850_03	161	23	all	all	PDT
homer-odyssey-850_03	161	24	the	the	DT
homer-odyssey-850_03	161	25	land	land	NN
homer-odyssey-850_03	161	26	.	.	.
homer-odyssey-850_03	162	1	Then	then	RB
homer-odyssey-850_03	162	2	they	-PRON-	PRP
homer-odyssey-850_03	162	3	reached	reach	VBD
homer-odyssey-850_03	162	4	Pherae	pherae	NNP
homer-odyssey-850_03	162	5	where	where	WRB
homer-odyssey-850_03	162	6	Diocles	diocles	NNP
homer-odyssey-850_03	162	7	lived	live	VBD
homer-odyssey-850_03	162	8	,	,	,
homer-odyssey-850_03	162	9	who	who	WP
homer-odyssey-850_03	162	10	was	be	VBD
homer-odyssey-850_03	162	11	son	son	NN
homer-odyssey-850_03	162	12	to	to	IN
homer-odyssey-850_03	162	13	Ortilochus	ortilochus	NNP
homer-odyssey-850_03	162	14	and	and	CC
homer-odyssey-850_03	162	15	grandson	grandson	NN
homer-odyssey-850_03	162	16	to	to	IN
homer-odyssey-850_03	162	17	Alpheus	alpheus	NNP
homer-odyssey-850_03	162	18	.	.	.
homer-odyssey-850_03	163	1	Here	here	RB
homer-odyssey-850_03	163	2	they	-PRON-	PRP
homer-odyssey-850_03	163	3	passed	pass	VBD
homer-odyssey-850_03	163	4	the	the	DT
homer-odyssey-850_03	163	5	night	night	NN
homer-odyssey-850_03	163	6	and	and	CC
homer-odyssey-850_03	163	7	Diocles	diocles	NNP
homer-odyssey-850_03	163	8	entertained	entertain	VBD
homer-odyssey-850_03	163	9	them	-PRON-	PRP
homer-odyssey-850_03	163	10	hospitably	hospitably	RB
homer-odyssey-850_03	163	11	.	.	.
homer-odyssey-850_03	164	1	When	when	WRB
homer-odyssey-850_03	164	2	the	the	DT
homer-odyssey-850_03	164	3	child	child	NN
homer-odyssey-850_03	164	4	of	of	IN
homer-odyssey-850_03	164	5	morning	morning	NN
homer-odyssey-850_03	164	6	,	,	,
homer-odyssey-850_03	164	7	rosy-	rosy-	VBZ
homer-odyssey-850_03	164	8	fingered	finger	VBN
homer-odyssey-850_03	164	9	Dawn	dawn	NNP
homer-odyssey-850_03	164	10	,	,	,
homer-odyssey-850_03	164	11	appeared	appear	VBD
homer-odyssey-850_03	164	12	,	,	,
homer-odyssey-850_03	164	13	they	-PRON-	PRP
homer-odyssey-850_03	164	14	again	again	RB
homer-odyssey-850_03	164	15	yoked	yoke	VBD
homer-odyssey-850_03	164	16	their	-PRON-	PRP$
homer-odyssey-850_03	164	17	horses	horse	NNS
homer-odyssey-850_03	164	18	and	and	CC
homer-odyssey-850_03	164	19	drove	drive	VBD
homer-odyssey-850_03	164	20	out	out	RB
homer-odyssey-850_03	164	21	through	through	IN
homer-odyssey-850_03	164	22	the	the	DT
homer-odyssey-850_03	164	23	gateway	gateway	NN
homer-odyssey-850_03	164	24	under	under	IN
homer-odyssey-850_03	164	25	the	the	DT
homer-odyssey-850_03	164	26	echoing	echo	VBG
homer-odyssey-850_03	164	27	gatehouse	gatehouse	NN
homer-odyssey-850_03	164	28	.	.	.
homer-odyssey-850_03	165	1	{	{	-LRB-
homer-odyssey-850_03	165	2	34	34	CD
homer-odyssey-850_03	165	3	}	}	-RRB-
homer-odyssey-850_03	165	4	Pisistratus	pisistratus	NNP
homer-odyssey-850_03	165	5	lashed	lash	VBD
homer-odyssey-850_03	165	6	the	the	DT
homer-odyssey-850_03	165	7	horses	horse	NNS
homer-odyssey-850_03	165	8	on	on	IN
homer-odyssey-850_03	165	9	and	and	CC
homer-odyssey-850_03	165	10	they	-PRON-	PRP
homer-odyssey-850_03	165	11	flew	fly	VBD
homer-odyssey-850_03	165	12	forward	forward	RB
homer-odyssey-850_03	165	13	nothing	nothing	NN
homer-odyssey-850_03	165	14	loth	loth	JJ
homer-odyssey-850_03	165	15	;	;	:
homer-odyssey-850_03	165	16	presently	presently	RB
homer-odyssey-850_03	165	17	they	-PRON-	PRP
homer-odyssey-850_03	165	18	came	come	VBD
homer-odyssey-850_03	165	19	to	to	IN
homer-odyssey-850_03	165	20	the	the	DT
homer-odyssey-850_03	165	21	corn	corn	NN
homer-odyssey-850_03	165	22	lands	land	NNS
homer-odyssey-850_03	165	23	of	of	IN
homer-odyssey-850_03	165	24	the	the	DT
homer-odyssey-850_03	165	25	open	open	JJ
homer-odyssey-850_03	165	26	country	country	NN
homer-odyssey-850_03	165	27	,	,	,
homer-odyssey-850_03	165	28	and	and	CC
homer-odyssey-850_03	165	29	in	in	IN
homer-odyssey-850_03	165	30	the	the	DT
homer-odyssey-850_03	165	31	course	course	NN
homer-odyssey-850_03	165	32	of	of	IN
homer-odyssey-850_03	165	33	time	time	NN
homer-odyssey-850_03	165	34	completed	complete	VBD
homer-odyssey-850_03	165	35	their	-PRON-	PRP$
homer-odyssey-850_03	165	36	journey	journey	NN
homer-odyssey-850_03	165	37	,	,	,
homer-odyssey-850_03	165	38	so	so	RB
homer-odyssey-850_03	165	39	well	well	RB
homer-odyssey-850_03	165	40	did	do	VBD
homer-odyssey-850_03	165	41	their	-PRON-	PRP$
homer-odyssey-850_03	165	42	steeds	steed	NNS
homer-odyssey-850_03	165	43	take	take	VB
homer-odyssey-850_03	165	44	them	-PRON-	PRP
homer-odyssey-850_03	165	45	.	.	.
homer-odyssey-850_03	166	1	{	{	-LRB-
homer-odyssey-850_03	166	2	35	35	CD
homer-odyssey-850_03	166	3	}	}	-RRB-
homer-odyssey-850_03	166	4	Now	now	RB
homer-odyssey-850_03	166	5	when	when	WRB
homer-odyssey-850_03	166	6	the	the	DT
homer-odyssey-850_03	166	7	sun	sun	NN
homer-odyssey-850_03	166	8	had	have	VBD
homer-odyssey-850_03	166	9	set	set	VBN
homer-odyssey-850_03	166	10	and	and	CC
homer-odyssey-850_03	166	11	darkness	darkness	NN
homer-odyssey-850_03	166	12	was	be	VBD
homer-odyssey-850_03	166	13	over	over	IN
homer-odyssey-850_03	166	14	the	the	DT
homer-odyssey-850_03	166	15	land	land	NN
homer-odyssey-850_03	166	16	,	,	,
