id	sid	tid	token	lemma	pos
homer-odyssey-850_19	1	1	TELEMACHUS	telemachus	NNP
homer-odyssey-850_19	1	2	AND	and	CC
homer-odyssey-850_19	1	3	ULYSSES	ulysses	NNP
homer-odyssey-850_19	1	4	REMOVE	remove	NNP
homer-odyssey-850_19	1	5	THE	the	DT
homer-odyssey-850_19	1	6	ARMOUR	armour	NNP
homer-odyssey-850_19	1	7	--	--	:
homer-odyssey-850_19	1	8	ULYSSES	ulysses	NNP
homer-odyssey-850_19	1	9	INTERVIEWS	interviews	NNP
homer-odyssey-850_19	1	10	PENELOPE	penelope	NNP
homer-odyssey-850_19	1	11	--	--	:
homer-odyssey-850_19	1	12	EURYCLEA	euryclea	NNS
homer-odyssey-850_19	1	13	WASHES	washes	NNP
homer-odyssey-850_19	1	14	HIS	his	PRP$
homer-odyssey-850_19	1	15	FEET	foot	NNS
homer-odyssey-850_19	1	16	AND	and	CC
homer-odyssey-850_19	1	17	RECOGNISES	recognises	NNP
homer-odyssey-850_19	1	18	THE	the	DT
homer-odyssey-850_19	1	19	SCAR	scar	NNP
homer-odyssey-850_19	1	20	ON	on	IN
homer-odyssey-850_19	1	21	HIS	his	PRP$
homer-odyssey-850_19	1	22	LEG	leg	NNP
homer-odyssey-850_19	1	23	--	--	:
homer-odyssey-850_19	1	24	PENELOPE	penelope	NNP
homer-odyssey-850_19	1	25	TELLS	tell	VBZ
homer-odyssey-850_19	1	26	HER	h	PRP$
homer-odyssey-850_19	1	27	DREAM	dream	NN
homer-odyssey-850_19	1	28	TO	to	IN
homer-odyssey-850_19	1	29	ULYSSES	ulysses	NNP
homer-odyssey-850_19	1	30	.	.	.
homer-odyssey-850_19	2	1	Ulysses	ulyss	NNS
homer-odyssey-850_19	2	2	was	be	VBD
homer-odyssey-850_19	2	3	left	leave	VBN
homer-odyssey-850_19	2	4	in	in	IN
homer-odyssey-850_19	2	5	the	the	DT
homer-odyssey-850_19	2	6	cloister	cloister	NN
homer-odyssey-850_19	2	7	,	,	,
homer-odyssey-850_19	2	8	pondering	ponder	VBG
homer-odyssey-850_19	2	9	on	on	IN
homer-odyssey-850_19	2	10	the	the	DT
homer-odyssey-850_19	2	11	means	mean	NNS
homer-odyssey-850_19	2	12	whereby	whereby	WRB
homer-odyssey-850_19	2	13	with	with	IN
homer-odyssey-850_19	2	14	Minerva	minerva	NNP
homer-odyssey-850_19	2	15	's	's	POS
homer-odyssey-850_19	2	16	help	help	NN
homer-odyssey-850_19	2	17	he	-PRON-	PRP
homer-odyssey-850_19	2	18	might	may	MD
homer-odyssey-850_19	2	19	be	be	VB
homer-odyssey-850_19	2	20	able	able	JJ
homer-odyssey-850_19	2	21	to	to	TO
homer-odyssey-850_19	2	22	kill	kill	VB
homer-odyssey-850_19	2	23	the	the	DT
homer-odyssey-850_19	2	24	suitors	suitor	NNS
homer-odyssey-850_19	2	25	.	.	.
homer-odyssey-850_19	3	1	Presently	presently	RB
homer-odyssey-850_19	3	2	he	-PRON-	PRP
homer-odyssey-850_19	3	3	said	say	VBD
homer-odyssey-850_19	3	4	to	to	IN
homer-odyssey-850_19	3	5	Telemachus	telemachus	NNP
homer-odyssey-850_19	3	6	,	,	,
homer-odyssey-850_19	3	7	"	"	''
homer-odyssey-850_19	3	8	Telemachus	telemachus	NN
homer-odyssey-850_19	3	9	,	,	,
homer-odyssey-850_19	3	10	we	-PRON-	PRP
homer-odyssey-850_19	3	11	must	must	MD
homer-odyssey-850_19	3	12	get	get	VB
homer-odyssey-850_19	3	13	the	the	DT
homer-odyssey-850_19	3	14	armour	armour	NN
homer-odyssey-850_19	3	15	together	together	RB
homer-odyssey-850_19	3	16	and	and	CC
homer-odyssey-850_19	3	17	take	take	VB
homer-odyssey-850_19	3	18	it	-PRON-	PRP
homer-odyssey-850_19	3	19	down	down	RP
homer-odyssey-850_19	3	20	inside	inside	RB
homer-odyssey-850_19	3	21	.	.	.
homer-odyssey-850_19	4	1	Make	make	VB
homer-odyssey-850_19	4	2	some	some	DT
homer-odyssey-850_19	4	3	excuse	excuse	NN
homer-odyssey-850_19	4	4	when	when	WRB
homer-odyssey-850_19	4	5	the	the	DT
homer-odyssey-850_19	4	6	suitors	suitor	NNS
homer-odyssey-850_19	4	7	ask	ask	VBP
homer-odyssey-850_19	4	8	you	-PRON-	PRP
homer-odyssey-850_19	4	9	why	why	WRB
homer-odyssey-850_19	4	10	you	-PRON-	PRP
homer-odyssey-850_19	4	11	have	have	VBP
homer-odyssey-850_19	4	12	removed	remove	VBN
homer-odyssey-850_19	4	13	it	-PRON-	PRP
homer-odyssey-850_19	4	14	.	.	.
homer-odyssey-850_19	5	1	Say	say	VB
homer-odyssey-850_19	5	2	that	that	IN
homer-odyssey-850_19	5	3	you	-PRON-	PRP
homer-odyssey-850_19	5	4	have	have	VBP
homer-odyssey-850_19	5	5	taken	take	VBN
homer-odyssey-850_19	5	6	it	-PRON-	PRP
homer-odyssey-850_19	5	7	to	to	TO
homer-odyssey-850_19	5	8	be	be	VB
homer-odyssey-850_19	5	9	out	out	IN
homer-odyssey-850_19	5	10	of	of	IN
homer-odyssey-850_19	5	11	the	the	DT
homer-odyssey-850_19	5	12	way	way	NN
homer-odyssey-850_19	5	13	of	of	IN
homer-odyssey-850_19	5	14	the	the	DT
homer-odyssey-850_19	5	15	smoke	smoke	NN
homer-odyssey-850_19	5	16	,	,	,
homer-odyssey-850_19	5	17	inasmuch	inasmuch	IN
homer-odyssey-850_19	5	18	as	as	IN
homer-odyssey-850_19	5	19	it	-PRON-	PRP
homer-odyssey-850_19	5	20	is	be	VBZ
homer-odyssey-850_19	5	21	no	no	RB
homer-odyssey-850_19	5	22	longer	longer	RBR
homer-odyssey-850_19	5	23	what	what	WP
homer-odyssey-850_19	5	24	it	-PRON-	PRP
homer-odyssey-850_19	5	25	was	be	VBD
homer-odyssey-850_19	5	26	when	when	WRB
homer-odyssey-850_19	5	27	Ulysses	ulyss	NNS
homer-odyssey-850_19	5	28	went	go	VBD
homer-odyssey-850_19	5	29	away	away	RB
homer-odyssey-850_19	5	30	,	,	,
homer-odyssey-850_19	5	31	but	but	CC
homer-odyssey-850_19	5	32	has	have	VBZ
homer-odyssey-850_19	5	33	become	become	VBN
homer-odyssey-850_19	5	34	soiled	soil	VBN
homer-odyssey-850_19	5	35	and	and	CC
homer-odyssey-850_19	5	36	begrimed	begrime	VBN
homer-odyssey-850_19	5	37	with	with	IN
homer-odyssey-850_19	5	38	soot	soot	NN
homer-odyssey-850_19	5	39	.	.	.
homer-odyssey-850_19	6	1	Add	add	VB
homer-odyssey-850_19	6	2	to	to	IN
homer-odyssey-850_19	6	3	this	this	DT
homer-odyssey-850_19	6	4	more	more	RBR
homer-odyssey-850_19	6	5	particularly	particularly	RB
homer-odyssey-850_19	6	6	that	that	IN
homer-odyssey-850_19	6	7	you	-PRON-	PRP
homer-odyssey-850_19	6	8	are	be	VBP
homer-odyssey-850_19	6	9	afraid	afraid	JJ
homer-odyssey-850_19	6	10	Jove	jove	NNP
homer-odyssey-850_19	6	11	may	may	MD
homer-odyssey-850_19	6	12	set	set	VB
homer-odyssey-850_19	6	13	them	-PRON-	PRP
homer-odyssey-850_19	6	14	on	on	RP
homer-odyssey-850_19	6	15	to	to	TO
homer-odyssey-850_19	6	16	quarrel	quarrel	VB
homer-odyssey-850_19	6	17	over	over	IN
homer-odyssey-850_19	6	18	their	-PRON-	PRP$
homer-odyssey-850_19	6	19	wine	wine	NN
homer-odyssey-850_19	6	20	,	,	,
homer-odyssey-850_19	6	21	and	and	CC
homer-odyssey-850_19	6	22	that	that	IN
homer-odyssey-850_19	6	23	they	-PRON-	PRP
homer-odyssey-850_19	6	24	may	may	MD
homer-odyssey-850_19	6	25	do	do	VB
homer-odyssey-850_19	6	26	each	each	DT
homer-odyssey-850_19	6	27	other	other	JJ
homer-odyssey-850_19	6	28	some	some	DT
homer-odyssey-850_19	6	29	harm	harm	NN
homer-odyssey-850_19	6	30	which	which	WDT
homer-odyssey-850_19	6	31	may	may	MD
homer-odyssey-850_19	6	32	disgrace	disgrace	VB
homer-odyssey-850_19	6	33	both	both	DT
homer-odyssey-850_19	6	34	banquet	banquet	NN
homer-odyssey-850_19	6	35	and	and	CC
homer-odyssey-850_19	6	36	wooing	wooing	NN
homer-odyssey-850_19	6	37	,	,	,
homer-odyssey-850_19	6	38	for	for	IN
homer-odyssey-850_19	6	39	the	the	DT
homer-odyssey-850_19	6	40	sight	sight	NN
homer-odyssey-850_19	6	41	of	of	IN
homer-odyssey-850_19	6	42	arms	arm	NNS
homer-odyssey-850_19	6	43	sometimes	sometimes	RB
homer-odyssey-850_19	6	44	tempts	tempt	VBZ
homer-odyssey-850_19	6	45	people	people	NNS
homer-odyssey-850_19	6	46	to	to	TO
homer-odyssey-850_19	6	47	use	use	VB
homer-odyssey-850_19	6	48	them	-PRON-	PRP
homer-odyssey-850_19	6	49	.	.	.
homer-odyssey-850_19	6	50	"	"	''
homer-odyssey-850_19	7	1	Telemachus	telemachus	NNP
homer-odyssey-850_19	7	2	approved	approve	VBN
homer-odyssey-850_19	7	3	of	of	IN
homer-odyssey-850_19	7	4	what	what	WP
homer-odyssey-850_19	7	5	his	-PRON-	PRP$
homer-odyssey-850_19	7	6	father	father	NN
homer-odyssey-850_19	7	7	had	have	VBD
homer-odyssey-850_19	7	8	said	say	VBN
homer-odyssey-850_19	7	9	,	,	,
homer-odyssey-850_19	7	10	so	so	RB
homer-odyssey-850_19	7	11	he	-PRON-	PRP
homer-odyssey-850_19	7	12	called	call	VBD
homer-odyssey-850_19	7	13	nurse	nurse	NN
homer-odyssey-850_19	7	14	Euryclea	euryclea	NNP
homer-odyssey-850_19	7	15	and	and	CC
homer-odyssey-850_19	7	16	said	say	VBD
homer-odyssey-850_19	7	17	,	,	,
homer-odyssey-850_19	7	18	"	"	``
homer-odyssey-850_19	7	19	Nurse	nurse	VB
homer-odyssey-850_19	7	20	,	,	,
homer-odyssey-850_19	7	21	shut	shut	VB
homer-odyssey-850_19	7	22	the	the	DT
homer-odyssey-850_19	7	23	women	woman	NNS
homer-odyssey-850_19	7	24	up	up	RP
homer-odyssey-850_19	7	25	in	in	IN
homer-odyssey-850_19	7	26	their	-PRON-	PRP$
homer-odyssey-850_19	7	27	room	room	NN
homer-odyssey-850_19	7	28	,	,	,
homer-odyssey-850_19	7	29	while	while	IN
homer-odyssey-850_19	7	30	I	-PRON-	PRP
homer-odyssey-850_19	7	31	take	take	VBP
homer-odyssey-850_19	7	32	the	the	DT
homer-odyssey-850_19	7	33	armour	armour	NN
homer-odyssey-850_19	7	34	that	that	WDT
homer-odyssey-850_19	7	35	my	-PRON-	PRP$
homer-odyssey-850_19	7	36	father	father	NN
homer-odyssey-850_19	7	37	left	leave	VBD
homer-odyssey-850_19	7	38	behind	behind	IN
homer-odyssey-850_19	7	39	him	-PRON-	PRP
homer-odyssey-850_19	7	40	down	down	RP
homer-odyssey-850_19	7	41	into	into	IN
homer-odyssey-850_19	7	42	the	the	DT
homer-odyssey-850_19	7	43	store	store	NN
homer-odyssey-850_19	7	44	room	room	NN
homer-odyssey-850_19	7	45	.	.	.
homer-odyssey-850_19	8	1	No	no	DT
homer-odyssey-850_19	8	2	one	one	NN
homer-odyssey-850_19	8	3	looks	look	VBZ
homer-odyssey-850_19	8	4	after	after	IN
homer-odyssey-850_19	8	5	it	-PRON-	PRP
homer-odyssey-850_19	8	6	now	now	RB
homer-odyssey-850_19	8	7	my	-PRON-	PRP$
homer-odyssey-850_19	8	8	father	father	NN
homer-odyssey-850_19	8	9	is	be	VBZ
homer-odyssey-850_19	8	10	gone	go	VBN
homer-odyssey-850_19	8	11	,	,	,
homer-odyssey-850_19	8	12	and	and	CC
homer-odyssey-850_19	8	13	it	-PRON-	PRP
homer-odyssey-850_19	8	14	has	have	VBZ
homer-odyssey-850_19	8	15	got	get	VBN
homer-odyssey-850_19	8	16	all	all	DT
homer-odyssey-850_19	8	17	smirched	smirch	VBN
homer-odyssey-850_19	8	18	with	with	IN
homer-odyssey-850_19	8	19	soot	soot	NN
homer-odyssey-850_19	8	20	during	during	IN
homer-odyssey-850_19	8	21	my	-PRON-	PRP$
homer-odyssey-850_19	8	22	own	own	JJ
homer-odyssey-850_19	8	23	boyhood	boyhood	NN
homer-odyssey-850_19	8	24	.	.	.
homer-odyssey-850_19	9	1	I	-PRON-	PRP
homer-odyssey-850_19	9	2	want	want	VBP
homer-odyssey-850_19	9	3	to	to	TO
homer-odyssey-850_19	9	4	take	take	VB
homer-odyssey-850_19	9	5	it	-PRON-	PRP
homer-odyssey-850_19	9	6	down	down	RP
homer-odyssey-850_19	9	7	where	where	WRB
homer-odyssey-850_19	9	8	the	the	DT
homer-odyssey-850_19	9	9	smoke	smoke	NN
homer-odyssey-850_19	9	10	can	can	MD
homer-odyssey-850_19	9	11	not	not	RB
homer-odyssey-850_19	9	12	reach	reach	VB
homer-odyssey-850_19	9	13	it	-PRON-	PRP
homer-odyssey-850_19	9	14	.	.	.
homer-odyssey-850_19	9	15	"	"	''
homer-odyssey-850_19	10	1	"	"	``
homer-odyssey-850_19	10	2	I	-PRON-	PRP
homer-odyssey-850_19	10	3	wish	wish	VBP
homer-odyssey-850_19	10	4	,	,	,
homer-odyssey-850_19	10	5	child	child	NN
homer-odyssey-850_19	10	6	,	,	,
homer-odyssey-850_19	10	7	"	"	''
homer-odyssey-850_19	10	8	answered	answer	VBD
homer-odyssey-850_19	10	9	Euryclea	euryclea	NNP
homer-odyssey-850_19	10	10	,	,	,
homer-odyssey-850_19	10	11	"	"	''
homer-odyssey-850_19	10	12	that	that	IN
homer-odyssey-850_19	10	13	you	-PRON-	PRP
homer-odyssey-850_19	10	14	would	would	MD
homer-odyssey-850_19	10	15	take	take	VB
homer-odyssey-850_19	10	16	the	the	DT
homer-odyssey-850_19	10	17	management	management	NN
homer-odyssey-850_19	10	18	of	of	IN
homer-odyssey-850_19	10	19	the	the	DT
homer-odyssey-850_19	10	20	house	house	NN
homer-odyssey-850_19	10	21	into	into	IN
homer-odyssey-850_19	10	22	your	-PRON-	PRP$
homer-odyssey-850_19	10	23	own	own	JJ
homer-odyssey-850_19	10	24	hands	hand	NNS
homer-odyssey-850_19	10	25	altogether	altogether	RB
homer-odyssey-850_19	10	26	,	,	,
homer-odyssey-850_19	10	27	and	and	CC
homer-odyssey-850_19	10	28	look	look	VB
homer-odyssey-850_19	10	29	after	after	IN
homer-odyssey-850_19	10	30	all	all	PDT
homer-odyssey-850_19	10	31	the	the	DT
homer-odyssey-850_19	10	32	property	property	NN
homer-odyssey-850_19	10	33	yourself	-PRON-	PRP
homer-odyssey-850_19	10	34	.	.	.
homer-odyssey-850_19	11	1	But	but	CC
homer-odyssey-850_19	11	2	who	who	WP
homer-odyssey-850_19	11	3	is	be	VBZ
homer-odyssey-850_19	11	4	to	to	TO
homer-odyssey-850_19	11	5	go	go	VB
homer-odyssey-850_19	11	6	with	with	IN
homer-odyssey-850_19	11	7	you	-PRON-	PRP
homer-odyssey-850_19	11	8	and	and	CC
homer-odyssey-850_19	11	9	light	light	VB
homer-odyssey-850_19	11	10	you	-PRON-	PRP
homer-odyssey-850_19	11	11	to	to	IN
homer-odyssey-850_19	11	12	the	the	DT
homer-odyssey-850_19	11	13	store-	store-	JJ
homer-odyssey-850_19	11	14	room	room	NN
homer-odyssey-850_19	11	15	?	?	.
homer-odyssey-850_19	12	1	The	the	DT
homer-odyssey-850_19	12	2	maids	maid	NNS
homer-odyssey-850_19	12	3	would	would	MD
homer-odyssey-850_19	12	4	have	have	VB
homer-odyssey-850_19	12	5	done	do	VBN
homer-odyssey-850_19	12	6	so	so	RB
homer-odyssey-850_19	12	7	,	,	,
homer-odyssey-850_19	12	8	but	but	CC
homer-odyssey-850_19	12	9	you	-PRON-	PRP
homer-odyssey-850_19	12	10	would	would	MD
homer-odyssey-850_19	12	11	not	not	RB
homer-odyssey-850_19	12	12	let	let	VB
homer-odyssey-850_19	12	13	them	-PRON-	PRP
homer-odyssey-850_19	12	14	.	.	.
homer-odyssey-850_19	12	15	"	"	''
homer-odyssey-850_19	13	1	"	"	``
homer-odyssey-850_19	13	2	The	the	DT
homer-odyssey-850_19	13	3	stranger	stranger	NN
homer-odyssey-850_19	13	4	,	,	,
homer-odyssey-850_19	13	5	"	"	''
homer-odyssey-850_19	13	6	said	say	VBD
homer-odyssey-850_19	13	7	Telemachus	telemachus	NNP
homer-odyssey-850_19	13	8	,	,	,
homer-odyssey-850_19	13	9	"	"	''
homer-odyssey-850_19	13	10	shall	shall	MD
homer-odyssey-850_19	13	11	show	show	VB
homer-odyssey-850_19	13	12	me	-PRON-	PRP
homer-odyssey-850_19	13	13	a	a	DT
homer-odyssey-850_19	13	14	light	light	NN
homer-odyssey-850_19	13	15	;	;	:
homer-odyssey-850_19	13	16	when	when	WRB
homer-odyssey-850_19	13	17	people	people	NNS
homer-odyssey-850_19	13	18	eat	eat	VBP
homer-odyssey-850_19	13	19	my	-PRON-	PRP$
homer-odyssey-850_19	13	20	bread	bread	NN
homer-odyssey-850_19	13	21	they	-PRON-	PRP
homer-odyssey-850_19	13	22	must	must	MD
homer-odyssey-850_19	13	23	earn	earn	VB
homer-odyssey-850_19	13	24	it	-PRON-	PRP
homer-odyssey-850_19	13	25	,	,	,
homer-odyssey-850_19	13	26	no	no	RB
homer-odyssey-850_19	13	27	matter	matter	RB
homer-odyssey-850_19	13	28	where	where	WRB
homer-odyssey-850_19	13	29	they	-PRON-	PRP
homer-odyssey-850_19	13	30	come	come	VBP
homer-odyssey-850_19	13	31	from	from	IN
homer-odyssey-850_19	13	32	.	.	.
homer-odyssey-850_19	13	33	"	"	''
homer-odyssey-850_19	14	1	Euryclea	euryclea	NNP
homer-odyssey-850_19	14	2	did	do	VBD
homer-odyssey-850_19	14	3	as	as	IN
homer-odyssey-850_19	14	4	she	-PRON-	PRP
homer-odyssey-850_19	14	5	was	be	VBD
homer-odyssey-850_19	14	6	told	tell	VBN
homer-odyssey-850_19	14	7	,	,	,
homer-odyssey-850_19	14	8	and	and	CC
homer-odyssey-850_19	14	9	bolted	bolt	VBD
homer-odyssey-850_19	14	10	the	the	DT
homer-odyssey-850_19	14	11	women	woman	NNS
homer-odyssey-850_19	14	12	inside	inside	IN
homer-odyssey-850_19	14	13	their	-PRON-	PRP$
homer-odyssey-850_19	14	14	room	room	NN
homer-odyssey-850_19	14	15	.	.	.
homer-odyssey-850_19	15	1	Then	then	RB
homer-odyssey-850_19	15	2	Ulysses	ulysses	NNPS
homer-odyssey-850_19	15	3	and	and	CC
homer-odyssey-850_19	15	4	his	-PRON-	PRP$
homer-odyssey-850_19	15	5	son	son	NN
homer-odyssey-850_19	15	6	made	make	VBD
homer-odyssey-850_19	15	7	all	all	DT
homer-odyssey-850_19	15	8	haste	haste	NN
homer-odyssey-850_19	15	9	to	to	TO
homer-odyssey-850_19	15	10	take	take	VB
homer-odyssey-850_19	15	11	the	the	DT
homer-odyssey-850_19	15	12	helmets	helmet	NNS
homer-odyssey-850_19	15	13	,	,	,
homer-odyssey-850_19	15	14	shields	shield	NNS
homer-odyssey-850_19	15	15	,	,	,
homer-odyssey-850_19	15	16	and	and	CC
homer-odyssey-850_19	15	17	spears	spear	NNS
homer-odyssey-850_19	15	18	inside	inside	RB
homer-odyssey-850_19	15	19	;	;	:
homer-odyssey-850_19	15	20	and	and	CC
homer-odyssey-850_19	15	21	Minerva	minerva	NNP
homer-odyssey-850_19	15	22	went	go	VBD
homer-odyssey-850_19	15	23	before	before	IN
homer-odyssey-850_19	15	24	them	-PRON-	PRP
homer-odyssey-850_19	15	25	with	with	IN
homer-odyssey-850_19	15	26	a	a	DT
homer-odyssey-850_19	15	27	gold	gold	JJ
homer-odyssey-850_19	15	28	lamp	lamp	NN
homer-odyssey-850_19	15	29	in	in	IN
homer-odyssey-850_19	15	30	her	-PRON-	PRP$
homer-odyssey-850_19	15	31	hand	hand	NN
homer-odyssey-850_19	15	32	that	that	WDT
homer-odyssey-850_19	15	33	shed	shed	VBD
homer-odyssey-850_19	15	34	a	a	DT
homer-odyssey-850_19	15	35	soft	soft	JJ
homer-odyssey-850_19	15	36	and	and	CC
homer-odyssey-850_19	15	37	brilliant	brilliant	JJ
homer-odyssey-850_19	15	38	radiance	radiance	NN
homer-odyssey-850_19	15	39	,	,	,
homer-odyssey-850_19	15	40	whereon	whereon	NN
homer-odyssey-850_19	15	41	Telemachus	telemachus	NNP
homer-odyssey-850_19	15	42	said	say	VBD
homer-odyssey-850_19	15	43	,	,	,
homer-odyssey-850_19	15	44	"	"	``
homer-odyssey-850_19	15	45	Father	father	NNP
homer-odyssey-850_19	15	46	,	,	,
homer-odyssey-850_19	15	47	my	-PRON-	PRP$
homer-odyssey-850_19	15	48	eyes	eye	NNS
homer-odyssey-850_19	15	49	behold	behold	VBP
homer-odyssey-850_19	15	50	a	a	DT
homer-odyssey-850_19	15	51	great	great	JJ
homer-odyssey-850_19	15	52	marvel	marvel	NN
homer-odyssey-850_19	15	53	:	:	:
homer-odyssey-850_19	15	54	the	the	DT
homer-odyssey-850_19	15	55	walls	wall	NNS
homer-odyssey-850_19	15	56	,	,	,
homer-odyssey-850_19	15	57	with	with	IN
homer-odyssey-850_19	15	58	the	the	DT
homer-odyssey-850_19	15	59	rafters	rafter	NNS
homer-odyssey-850_19	15	60	,	,	,
homer-odyssey-850_19	15	61	crossbeams	crossbeam	NNS
homer-odyssey-850_19	15	62	,	,	,
homer-odyssey-850_19	15	63	and	and	CC
homer-odyssey-850_19	15	64	the	the	DT
homer-odyssey-850_19	15	65	supports	support	NNS
homer-odyssey-850_19	15	66	on	on	IN
homer-odyssey-850_19	15	67	which	which	WDT
homer-odyssey-850_19	15	68	they	-PRON-	PRP
homer-odyssey-850_19	15	69	rest	rest	VBP
homer-odyssey-850_19	15	70	are	be	VBP
homer-odyssey-850_19	15	71	all	all	RB
homer-odyssey-850_19	15	72	aglow	aglow	JJ
homer-odyssey-850_19	15	73	as	as	IN
homer-odyssey-850_19	15	74	with	with	IN
homer-odyssey-850_19	15	75	a	a	DT
homer-odyssey-850_19	15	76	flaming	flaming	JJ
homer-odyssey-850_19	15	77	fire	fire	NN
homer-odyssey-850_19	15	78	.	.	.
homer-odyssey-850_19	16	1	Surely	surely	RB
homer-odyssey-850_19	16	2	there	there	EX
homer-odyssey-850_19	16	3	is	be	VBZ
homer-odyssey-850_19	16	4	some	some	DT
homer-odyssey-850_19	16	5	god	god	NN
homer-odyssey-850_19	16	6	here	here	RB
homer-odyssey-850_19	16	7	who	who	WP
homer-odyssey-850_19	16	8	has	have	VBZ
homer-odyssey-850_19	16	9	come	come	VBN
homer-odyssey-850_19	16	10	down	down	RP
homer-odyssey-850_19	16	11	from	from	IN
homer-odyssey-850_19	16	12	heaven	heaven	NNP
homer-odyssey-850_19	16	13	.	.	.
homer-odyssey-850_19	16	14	"	"	''
homer-odyssey-850_19	17	1	"	"	``
homer-odyssey-850_19	17	2	Hush	hush	NNP
homer-odyssey-850_19	17	3	,	,	,
homer-odyssey-850_19	17	4	"	"	''
homer-odyssey-850_19	17	5	answered	answer	VBD
homer-odyssey-850_19	17	6	Ulysses	ulyss	NNS
homer-odyssey-850_19	17	7	,	,	,
homer-odyssey-850_19	17	8	"	"	''
homer-odyssey-850_19	17	9	hold	hold	VB
homer-odyssey-850_19	17	10	your	-PRON-	PRP$
homer-odyssey-850_19	17	11	peace	peace	NN
homer-odyssey-850_19	17	12	and	and	CC
homer-odyssey-850_19	17	13	ask	ask	VB
homer-odyssey-850_19	17	14	no	no	DT
homer-odyssey-850_19	17	15	questions	question	NNS
homer-odyssey-850_19	17	16	,	,	,
homer-odyssey-850_19	17	17	for	for	IN
homer-odyssey-850_19	17	18	this	this	DT
homer-odyssey-850_19	17	19	is	be	VBZ
homer-odyssey-850_19	17	20	the	the	DT
homer-odyssey-850_19	17	21	manner	manner	NN
homer-odyssey-850_19	17	22	of	of	IN
homer-odyssey-850_19	17	23	the	the	DT
homer-odyssey-850_19	17	24	gods	god	NNS
homer-odyssey-850_19	17	25	.	.	.
homer-odyssey-850_19	18	1	Get	get	VB
homer-odyssey-850_19	18	2	you	-PRON-	PRP
homer-odyssey-850_19	18	3	to	to	IN
homer-odyssey-850_19	18	4	your	-PRON-	PRP$
homer-odyssey-850_19	18	5	bed	bed	NN
homer-odyssey-850_19	18	6	,	,	,
homer-odyssey-850_19	18	7	and	and	CC
homer-odyssey-850_19	18	8	leave	leave	VB
homer-odyssey-850_19	18	9	me	-PRON-	PRP
homer-odyssey-850_19	18	10	here	here	RB
homer-odyssey-850_19	18	11	to	to	TO
homer-odyssey-850_19	18	12	talk	talk	VB
homer-odyssey-850_19	18	13	with	with	IN
homer-odyssey-850_19	18	14	your	-PRON-	PRP$
homer-odyssey-850_19	18	15	mother	mother	NN
homer-odyssey-850_19	18	16	and	and	CC
homer-odyssey-850_19	18	17	the	the	DT
homer-odyssey-850_19	18	18	maids	maid	NNS
homer-odyssey-850_19	18	19	.	.	.
homer-odyssey-850_19	19	1	Your	-PRON-	PRP$
homer-odyssey-850_19	19	2	mother	mother	NN
homer-odyssey-850_19	19	3	in	in	IN
homer-odyssey-850_19	19	4	her	-PRON-	PRP$
homer-odyssey-850_19	19	5	grief	grief	NN
homer-odyssey-850_19	19	6	will	will	MD
homer-odyssey-850_19	19	7	ask	ask	VB
homer-odyssey-850_19	19	8	me	-PRON-	PRP
homer-odyssey-850_19	19	9	all	all	DT
homer-odyssey-850_19	19	10	sorts	sort	NNS
homer-odyssey-850_19	19	11	of	of	IN
homer-odyssey-850_19	19	12	questions	question	NNS
homer-odyssey-850_19	19	13	.	.	.
homer-odyssey-850_19	19	14	"	"	''
homer-odyssey-850_19	20	1	On	on	IN
homer-odyssey-850_19	20	2	this	this	DT
homer-odyssey-850_19	20	3	Telemachus	telemachus	NNP
homer-odyssey-850_19	20	4	went	go	VBD
homer-odyssey-850_19	20	5	by	by	IN
homer-odyssey-850_19	20	6	torch-	torch-	PRP
homer-odyssey-850_19	20	7	light	light	NN
homer-odyssey-850_19	20	8	to	to	IN
homer-odyssey-850_19	20	9	the	the	DT
homer-odyssey-850_19	20	10	other	other	JJ
homer-odyssey-850_19	20	11	side	side	NN
homer-odyssey-850_19	20	12	of	of	IN
homer-odyssey-850_19	20	13	the	the	DT
homer-odyssey-850_19	20	14	inner	inner	JJ
homer-odyssey-850_19	20	15	court	court	NN
homer-odyssey-850_19	20	16	,	,	,
homer-odyssey-850_19	20	17	to	to	IN
homer-odyssey-850_19	20	18	the	the	DT
homer-odyssey-850_19	20	19	room	room	NN
homer-odyssey-850_19	20	20	in	in	IN
homer-odyssey-850_19	20	21	which	which	WDT
homer-odyssey-850_19	20	22	he	-PRON-	PRP
homer-odyssey-850_19	20	23	always	always	RB
homer-odyssey-850_19	20	24	slept	sleep	VBD
homer-odyssey-850_19	20	25	.	.	.
homer-odyssey-850_19	21	1	There	there	RB
homer-odyssey-850_19	21	2	he	-PRON-	PRP
homer-odyssey-850_19	21	3	lay	lie	VBD
homer-odyssey-850_19	21	4	in	in	IN
homer-odyssey-850_19	21	5	his	-PRON-	PRP$
homer-odyssey-850_19	21	6	bed	bed	NN
homer-odyssey-850_19	21	7	till	till	IN
homer-odyssey-850_19	21	8	morning	morning	NN
homer-odyssey-850_19	21	9	,	,	,
homer-odyssey-850_19	21	10	while	while	IN
homer-odyssey-850_19	21	11	Ulysses	ulyss	NNS
homer-odyssey-850_19	21	12	was	be	VBD
homer-odyssey-850_19	21	13	left	leave	VBN
homer-odyssey-850_19	21	14	in	in	IN
homer-odyssey-850_19	21	15	the	the	DT
homer-odyssey-850_19	21	16	cloister	cloister	NN
homer-odyssey-850_19	21	17	pondering	ponder	VBG
homer-odyssey-850_19	21	18	on	on	IN
homer-odyssey-850_19	21	19	the	the	DT
homer-odyssey-850_19	21	20	means	mean	NNS
homer-odyssey-850_19	21	21	whereby	whereby	WRB
homer-odyssey-850_19	21	22	with	with	IN
homer-odyssey-850_19	21	23	Minerva	minerva	NNP
homer-odyssey-850_19	21	24	's	's	POS
homer-odyssey-850_19	21	25	help	help	NN
homer-odyssey-850_19	21	26	he	-PRON-	PRP
homer-odyssey-850_19	21	27	might	may	MD
homer-odyssey-850_19	21	28	be	be	VB
homer-odyssey-850_19	21	29	able	able	JJ
homer-odyssey-850_19	21	30	to	to	TO
homer-odyssey-850_19	21	31	kill	kill	VB
homer-odyssey-850_19	21	32	the	the	DT
homer-odyssey-850_19	21	33	suitors	suitor	NNS
homer-odyssey-850_19	21	34	.	.	.
homer-odyssey-850_19	22	1	Then	then	RB
homer-odyssey-850_19	22	2	Penelope	penelope	NNP
homer-odyssey-850_19	22	3	came	come	VBD
homer-odyssey-850_19	22	4	down	down	RP
homer-odyssey-850_19	22	5	from	from	IN
homer-odyssey-850_19	22	6	her	-PRON-	PRP$
homer-odyssey-850_19	22	7	room	room	NN
homer-odyssey-850_19	22	8	looking	look	VBG
homer-odyssey-850_19	22	9	like	like	IN
homer-odyssey-850_19	22	10	Venus	venus	NNP
homer-odyssey-850_19	22	11	or	or	CC
homer-odyssey-850_19	22	12	Diana	diana	NNP
homer-odyssey-850_19	22	13	,	,	,
homer-odyssey-850_19	22	14	and	and	CC
homer-odyssey-850_19	22	15	they	-PRON-	PRP
homer-odyssey-850_19	22	16	set	set	VBD
homer-odyssey-850_19	22	17	her	-PRON-	PRP
homer-odyssey-850_19	22	18	a	a	DT
homer-odyssey-850_19	22	19	seat	seat	NN
homer-odyssey-850_19	22	20	inlaid	inlaid	JJ
homer-odyssey-850_19	22	21	with	with	IN
homer-odyssey-850_19	22	22	scrolls	scroll	NNS
homer-odyssey-850_19	22	23	of	of	IN
homer-odyssey-850_19	22	24	silver	silver	NN
homer-odyssey-850_19	22	25	and	and	CC
homer-odyssey-850_19	22	26	ivory	ivory	NN
homer-odyssey-850_19	22	27	near	near	IN
homer-odyssey-850_19	22	28	the	the	DT
homer-odyssey-850_19	22	29	fire	fire	NN
homer-odyssey-850_19	22	30	in	in	IN
homer-odyssey-850_19	22	31	her	-PRON-	PRP$
homer-odyssey-850_19	22	32	accustomed	accustomed	JJ
homer-odyssey-850_19	22	33	place	place	NN
homer-odyssey-850_19	22	34	.	.	.
homer-odyssey-850_19	23	1	It	-PRON-	PRP
homer-odyssey-850_19	23	2	had	have	VBD
homer-odyssey-850_19	23	3	been	be	VBN
homer-odyssey-850_19	23	4	made	make	VBN
homer-odyssey-850_19	23	5	by	by	IN
homer-odyssey-850_19	23	6	Icmalius	icmalius	NNP
homer-odyssey-850_19	23	7	and	and	CC
homer-odyssey-850_19	23	8	had	have	VBD
homer-odyssey-850_19	23	9	a	a	DT
homer-odyssey-850_19	23	10	footstool	footstool	NN
homer-odyssey-850_19	23	11	all	all	DT
homer-odyssey-850_19	23	12	in	in	IN
homer-odyssey-850_19	23	13	one	one	CD
homer-odyssey-850_19	23	14	piece	piece	NN
homer-odyssey-850_19	23	15	with	with	IN
homer-odyssey-850_19	23	16	the	the	DT
homer-odyssey-850_19	23	17	seat	seat	NN
homer-odyssey-850_19	23	18	itself	-PRON-	PRP
homer-odyssey-850_19	23	19	;	;	:
homer-odyssey-850_19	23	20	and	and	CC
homer-odyssey-850_19	23	21	it	-PRON-	PRP
homer-odyssey-850_19	23	22	was	be	VBD
homer-odyssey-850_19	23	23	covered	cover	VBN
homer-odyssey-850_19	23	24	with	with	IN
homer-odyssey-850_19	23	25	a	a	DT
homer-odyssey-850_19	23	26	thick	thick	JJ
homer-odyssey-850_19	23	27	fleece	fleece	NN
homer-odyssey-850_19	23	28	:	:	:
homer-odyssey-850_19	23	29	on	on	IN
homer-odyssey-850_19	23	30	this	this	DT
homer-odyssey-850_19	23	31	she	-PRON-	PRP
homer-odyssey-850_19	23	32	now	now	RB
homer-odyssey-850_19	23	33	sat	sit	VBD
homer-odyssey-850_19	23	34	,	,	,
homer-odyssey-850_19	23	35	and	and	CC
homer-odyssey-850_19	23	36	the	the	DT
homer-odyssey-850_19	23	37	maids	maid	NNS
homer-odyssey-850_19	23	38	came	come	VBD
homer-odyssey-850_19	23	39	from	from	IN
homer-odyssey-850_19	23	40	the	the	DT
homer-odyssey-850_19	23	41	women	woman	NNS
homer-odyssey-850_19	23	42	's	's	POS
homer-odyssey-850_19	23	43	room	room	NN
homer-odyssey-850_19	23	44	to	to	TO
homer-odyssey-850_19	23	45	join	join	VB
homer-odyssey-850_19	23	46	her	-PRON-	PRP
homer-odyssey-850_19	23	47	.	.	.
homer-odyssey-850_19	24	1	They	-PRON-	PRP
homer-odyssey-850_19	24	2	set	set	VBD
homer-odyssey-850_19	24	3	about	about	IN
homer-odyssey-850_19	24	4	removing	remove	VBG
homer-odyssey-850_19	24	5	the	the	DT
homer-odyssey-850_19	24	6	tables	table	NNS
homer-odyssey-850_19	24	7	at	at	IN
homer-odyssey-850_19	24	8	which	which	WDT
homer-odyssey-850_19	24	9	the	the	DT
homer-odyssey-850_19	24	10	wicked	wicked	JJ
homer-odyssey-850_19	24	11	suitors	suitor	NNS
homer-odyssey-850_19	24	12	had	have	VBD
homer-odyssey-850_19	24	13	been	be	VBN
homer-odyssey-850_19	24	14	dining	din	VBG
homer-odyssey-850_19	24	15	,	,	,
homer-odyssey-850_19	24	16	and	and	CC
homer-odyssey-850_19	24	17	took	take	VBD
homer-odyssey-850_19	24	18	away	away	RB
homer-odyssey-850_19	24	19	the	the	DT
homer-odyssey-850_19	24	20	bread	bread	NN
homer-odyssey-850_19	24	21	that	that	WDT
homer-odyssey-850_19	24	22	was	be	VBD
homer-odyssey-850_19	24	23	left	leave	VBN
homer-odyssey-850_19	24	24	,	,	,
homer-odyssey-850_19	24	25	with	with	IN
homer-odyssey-850_19	24	26	the	the	DT
homer-odyssey-850_19	24	27	cups	cup	NNS
homer-odyssey-850_19	24	28	from	from	IN
homer-odyssey-850_19	24	29	which	which	WDT
homer-odyssey-850_19	24	30	they	-PRON-	PRP
homer-odyssey-850_19	24	31	had	have	VBD
homer-odyssey-850_19	24	32	drunk	drunk	JJ
homer-odyssey-850_19	24	33	.	.	.
homer-odyssey-850_19	25	1	They	-PRON-	PRP
homer-odyssey-850_19	25	2	emptied	empty	VBD
homer-odyssey-850_19	25	3	the	the	DT
homer-odyssey-850_19	25	4	embers	ember	NNS
homer-odyssey-850_19	25	5	out	out	IN
homer-odyssey-850_19	25	6	of	of	IN
homer-odyssey-850_19	25	7	the	the	DT
homer-odyssey-850_19	25	8	braziers	brazier	NNS
homer-odyssey-850_19	25	9	,	,	,
homer-odyssey-850_19	25	10	and	and	CC
homer-odyssey-850_19	25	11	heaped	heap	VBD
homer-odyssey-850_19	25	12	much	much	JJ
homer-odyssey-850_19	25	13	wood	wood	NN
homer-odyssey-850_19	25	14	upon	upon	IN
homer-odyssey-850_19	25	15	them	-PRON-	PRP
homer-odyssey-850_19	25	16	to	to	TO
homer-odyssey-850_19	25	17	give	give	VB
homer-odyssey-850_19	25	18	both	both	DT
homer-odyssey-850_19	25	19	light	light	NN
homer-odyssey-850_19	25	20	and	and	CC
homer-odyssey-850_19	25	21	heat	heat	NN
homer-odyssey-850_19	25	22	;	;	:
homer-odyssey-850_19	25	23	but	but	CC
homer-odyssey-850_19	25	24	Melantho	melantho	NNP
homer-odyssey-850_19	25	25	began	begin	VBD
homer-odyssey-850_19	25	26	to	to	TO
homer-odyssey-850_19	25	27	rail	rail	VB
homer-odyssey-850_19	25	28	at	at	IN
homer-odyssey-850_19	25	29	Ulysses	ulyss	NNS
homer-odyssey-850_19	25	30	a	a	DT
homer-odyssey-850_19	25	31	second	second	JJ
homer-odyssey-850_19	25	32	time	time	NN
homer-odyssey-850_19	25	33	and	and	CC
homer-odyssey-850_19	25	34	said	say	VBD
homer-odyssey-850_19	25	35	,	,	,
homer-odyssey-850_19	25	36	"	"	``
homer-odyssey-850_19	25	37	Stranger	stranger	NNP
homer-odyssey-850_19	25	38	,	,	,
homer-odyssey-850_19	25	39	do	do	VBP
homer-odyssey-850_19	25	40	you	-PRON-	PRP
homer-odyssey-850_19	25	41	mean	mean	VB
homer-odyssey-850_19	25	42	to	to	TO
homer-odyssey-850_19	25	43	plague	plague	VB
homer-odyssey-850_19	25	44	us	-PRON-	PRP
homer-odyssey-850_19	25	45	by	by	IN
homer-odyssey-850_19	25	46	hanging	hang	VBG
homer-odyssey-850_19	25	47	about	about	IN
homer-odyssey-850_19	25	48	the	the	DT
homer-odyssey-850_19	25	49	house	house	NN
homer-odyssey-850_19	25	50	all	all	DT
homer-odyssey-850_19	25	51	night	night	NN
homer-odyssey-850_19	25	52	and	and	CC
homer-odyssey-850_19	25	53	spying	spy	VBG
homer-odyssey-850_19	25	54	upon	upon	IN
homer-odyssey-850_19	25	55	the	the	DT
homer-odyssey-850_19	25	56	women	woman	NNS
homer-odyssey-850_19	25	57	?	?	.
homer-odyssey-850_19	26	1	Be	be	VB
homer-odyssey-850_19	26	2	off	off	RP
homer-odyssey-850_19	26	3	,	,	,
homer-odyssey-850_19	26	4	you	-PRON-	PRP
homer-odyssey-850_19	26	5	wretch	wretch	VBP
homer-odyssey-850_19	26	6	,	,	,
homer-odyssey-850_19	26	7	outside	outside	RB
homer-odyssey-850_19	26	8	,	,	,
homer-odyssey-850_19	26	9	and	and	CC
homer-odyssey-850_19	26	10	eat	eat	VB
homer-odyssey-850_19	26	11	your	-PRON-	PRP$
homer-odyssey-850_19	26	12	supper	supper	NN
homer-odyssey-850_19	26	13	there	there	RB
homer-odyssey-850_19	26	14	,	,	,
homer-odyssey-850_19	26	15	or	or	CC
homer-odyssey-850_19	26	16	you	-PRON-	PRP
homer-odyssey-850_19	26	17	shall	shall	MD
homer-odyssey-850_19	26	18	be	be	VB
homer-odyssey-850_19	26	19	driven	drive	VBN
homer-odyssey-850_19	26	20	out	out	RP
homer-odyssey-850_19	26	21	with	with	IN
homer-odyssey-850_19	26	22	a	a	DT
homer-odyssey-850_19	26	23	firebrand	firebrand	NN
homer-odyssey-850_19	26	24	.	.	.
homer-odyssey-850_19	26	25	"	"	''
homer-odyssey-850_19	27	1	Ulysses	ulyss	NNS
homer-odyssey-850_19	27	2	scowled	scowl	VBD
homer-odyssey-850_19	27	3	at	at	IN
homer-odyssey-850_19	27	4	her	-PRON-	PRP
homer-odyssey-850_19	27	5	and	and	CC
homer-odyssey-850_19	27	6	answered	answer	VBD
homer-odyssey-850_19	27	7	,	,	,
homer-odyssey-850_19	27	8	"	"	``
homer-odyssey-850_19	27	9	My	-PRON-	PRP$
homer-odyssey-850_19	27	10	good	good	JJ
homer-odyssey-850_19	27	11	woman	woman	NN
homer-odyssey-850_19	27	12	,	,	,
homer-odyssey-850_19	27	13	why	why	WRB
homer-odyssey-850_19	27	14	should	should	MD
homer-odyssey-850_19	27	15	you	-PRON-	PRP
homer-odyssey-850_19	27	16	be	be	VB
homer-odyssey-850_19	27	17	so	so	RB
homer-odyssey-850_19	27	18	angry	angry	JJ
homer-odyssey-850_19	27	19	with	with	IN
homer-odyssey-850_19	27	20	me	-PRON-	PRP
homer-odyssey-850_19	27	21	?	?	.
homer-odyssey-850_19	28	1	Is	be	VBZ
homer-odyssey-850_19	28	2	it	-PRON-	PRP
homer-odyssey-850_19	28	3	because	because	IN
homer-odyssey-850_19	28	4	I	-PRON-	PRP
homer-odyssey-850_19	28	5	am	be	VBP
homer-odyssey-850_19	28	6	not	not	RB
homer-odyssey-850_19	28	7	clean	clean	JJ
homer-odyssey-850_19	28	8	,	,	,
homer-odyssey-850_19	28	9	and	and	CC
homer-odyssey-850_19	28	10	my	-PRON-	PRP$
homer-odyssey-850_19	28	11	clothes	clothe	NNS
homer-odyssey-850_19	28	12	are	be	VBP
homer-odyssey-850_19	28	13	all	all	RB
homer-odyssey-850_19	28	14	in	in	IN
homer-odyssey-850_19	28	15	rags	rag	NNS
homer-odyssey-850_19	28	16	,	,	,
homer-odyssey-850_19	28	17	and	and	CC
homer-odyssey-850_19	28	18	because	because	IN
homer-odyssey-850_19	28	19	I	-PRON-	PRP
homer-odyssey-850_19	28	20	am	be	VBP
homer-odyssey-850_19	28	21	obliged	oblige	VBN
homer-odyssey-850_19	28	22	to	to	TO
homer-odyssey-850_19	28	23	go	go	VB
homer-odyssey-850_19	28	24	begging	beg	VBG
homer-odyssey-850_19	28	25	about	about	IN
homer-odyssey-850_19	28	26	after	after	IN
homer-odyssey-850_19	28	27	the	the	DT
homer-odyssey-850_19	28	28	manner	manner	NN
homer-odyssey-850_19	28	29	of	of	IN
homer-odyssey-850_19	28	30	tramps	tramp	NNS
homer-odyssey-850_19	28	31	and	and	CC
homer-odyssey-850_19	28	32	beggars	beggar	NNS
homer-odyssey-850_19	28	33	generally	generally	RB
homer-odyssey-850_19	28	34	?	?	.
homer-odyssey-850_19	29	1	I	-PRON-	PRP
homer-odyssey-850_19	29	2	too	too	RB
homer-odyssey-850_19	29	3	was	be	VBD
homer-odyssey-850_19	29	4	a	a	DT
homer-odyssey-850_19	29	5	rich	rich	JJ
homer-odyssey-850_19	29	6	man	man	NN
homer-odyssey-850_19	29	7	once	once	RB
homer-odyssey-850_19	29	8	,	,	,
homer-odyssey-850_19	29	9	and	and	CC
homer-odyssey-850_19	29	10	had	have	VBD
homer-odyssey-850_19	29	11	a	a	DT
homer-odyssey-850_19	29	12	fine	fine	JJ
homer-odyssey-850_19	29	13	house	house	NN
homer-odyssey-850_19	29	14	of	of	IN
homer-odyssey-850_19	29	15	my	-PRON-	PRP$
homer-odyssey-850_19	29	16	own	own	JJ
homer-odyssey-850_19	29	17	;	;	:
homer-odyssey-850_19	29	18	in	in	IN
homer-odyssey-850_19	29	19	those	those	DT
homer-odyssey-850_19	29	20	days	day	NNS
homer-odyssey-850_19	29	21	I	-PRON-	PRP
homer-odyssey-850_19	29	22	gave	give	VBD
homer-odyssey-850_19	29	23	to	to	IN
homer-odyssey-850_19	29	24	many	many	JJ
homer-odyssey-850_19	29	25	a	a	DT
homer-odyssey-850_19	29	26	tramp	tramp	NN
homer-odyssey-850_19	29	27	such	such	JJ
homer-odyssey-850_19	29	28	as	as	IN
homer-odyssey-850_19	29	29	I	-PRON-	PRP
homer-odyssey-850_19	29	30	now	now	RB
homer-odyssey-850_19	29	31	am	be	VBP
homer-odyssey-850_19	29	32	,	,	,
homer-odyssey-850_19	29	33	no	no	RB
homer-odyssey-850_19	29	34	matter	matter	RB
homer-odyssey-850_19	29	35	who	who	WP
homer-odyssey-850_19	29	36	he	-PRON-	PRP
homer-odyssey-850_19	29	37	might	may	MD
homer-odyssey-850_19	29	38	be	be	VB
homer-odyssey-850_19	29	39	nor	nor	CC
homer-odyssey-850_19	29	40	what	what	WP
homer-odyssey-850_19	29	41	he	-PRON-	PRP
homer-odyssey-850_19	29	42	wanted	want	VBD
homer-odyssey-850_19	29	43	.	.	.
homer-odyssey-850_19	30	1	I	-PRON-	PRP
homer-odyssey-850_19	30	2	had	have	VBD
homer-odyssey-850_19	30	3	any	any	DT
homer-odyssey-850_19	30	4	number	number	NN
homer-odyssey-850_19	30	5	of	of	IN
homer-odyssey-850_19	30	6	servants	servant	NNS
homer-odyssey-850_19	30	7	,	,	,
homer-odyssey-850_19	30	8	and	and	CC
homer-odyssey-850_19	30	9	all	all	PDT
homer-odyssey-850_19	30	10	the	the	DT
homer-odyssey-850_19	30	11	other	other	JJ
homer-odyssey-850_19	30	12	things	thing	NNS
homer-odyssey-850_19	30	13	which	which	WDT
homer-odyssey-850_19	30	14	people	people	NNS
homer-odyssey-850_19	30	15	have	have	VBP
homer-odyssey-850_19	30	16	who	who	WP
homer-odyssey-850_19	30	17	live	live	VBP
homer-odyssey-850_19	30	18	well	well	RB
homer-odyssey-850_19	30	19	and	and	CC
homer-odyssey-850_19	30	20	are	be	VBP
homer-odyssey-850_19	30	21	accounted	account	VBN
homer-odyssey-850_19	30	22	wealthy	wealthy	JJ
homer-odyssey-850_19	30	23	,	,	,
homer-odyssey-850_19	30	24	but	but	CC
homer-odyssey-850_19	30	25	it	-PRON-	PRP
homer-odyssey-850_19	30	26	pleased	please	VBD
homer-odyssey-850_19	30	27	Jove	jove	VB
homer-odyssey-850_19	30	28	to	to	TO
homer-odyssey-850_19	30	29	take	take	VB
homer-odyssey-850_19	30	30	all	all	RB
homer-odyssey-850_19	30	31	away	away	RB
homer-odyssey-850_19	30	32	from	from	IN
homer-odyssey-850_19	30	33	me	-PRON-	PRP
homer-odyssey-850_19	30	34	;	;	:
homer-odyssey-850_19	30	35	therefore	therefore	RB
homer-odyssey-850_19	30	36	,	,	,
homer-odyssey-850_19	30	37	woman	woman	NN
homer-odyssey-850_19	30	38	,	,	,
homer-odyssey-850_19	30	39	beware	beware	VB
homer-odyssey-850_19	30	40	lest	lest	IN
homer-odyssey-850_19	30	41	you	-PRON-	PRP
homer-odyssey-850_19	30	42	too	too	RB
homer-odyssey-850_19	30	43	come	come	VBP
homer-odyssey-850_19	30	44	to	to	TO
homer-odyssey-850_19	30	45	lose	lose	VB
homer-odyssey-850_19	30	46	that	that	DT
homer-odyssey-850_19	30	47	pride	pride	NN
homer-odyssey-850_19	30	48	and	and	CC
homer-odyssey-850_19	30	49	place	place	NN
homer-odyssey-850_19	30	50	in	in	IN
homer-odyssey-850_19	30	51	which	which	WDT
homer-odyssey-850_19	30	52	you	-PRON-	PRP
homer-odyssey-850_19	30	53	now	now	RB
homer-odyssey-850_19	30	54	wanton	wanton	VBP
homer-odyssey-850_19	30	55	above	above	IN
homer-odyssey-850_19	30	56	your	-PRON-	PRP$
homer-odyssey-850_19	30	57	fellows	fellow	NNS
homer-odyssey-850_19	30	58	;	;	:
homer-odyssey-850_19	30	59	have	have	VB
homer-odyssey-850_19	30	60	a	a	DT
homer-odyssey-850_19	30	61	care	care	NN
homer-odyssey-850_19	30	62	lest	lest	IN
homer-odyssey-850_19	30	63	you	-PRON-	PRP
homer-odyssey-850_19	30	64	get	get	VBP
homer-odyssey-850_19	30	65	out	out	IN
homer-odyssey-850_19	30	66	of	of	IN
homer-odyssey-850_19	30	67	favour	favour	NN
homer-odyssey-850_19	30	68	with	with	IN
homer-odyssey-850_19	30	69	your	-PRON-	PRP$
homer-odyssey-850_19	30	70	mistress	mistress	NN
homer-odyssey-850_19	30	71	,	,	,
homer-odyssey-850_19	30	72	and	and	CC
homer-odyssey-850_19	30	73	lest	lest	IN
homer-odyssey-850_19	30	74	Ulysses	ulyss	NNS
homer-odyssey-850_19	30	75	should	should	MD
homer-odyssey-850_19	30	76	come	come	VB
homer-odyssey-850_19	30	77	home	home	RB
homer-odyssey-850_19	30	78	,	,	,
homer-odyssey-850_19	30	79	for	for	IN
homer-odyssey-850_19	30	80	there	there	EX
homer-odyssey-850_19	30	81	is	be	VBZ
homer-odyssey-850_19	30	82	still	still	RB
homer-odyssey-850_19	30	83	a	a	DT
homer-odyssey-850_19	30	84	chance	chance	NN
homer-odyssey-850_19	30	85	that	that	IN
homer-odyssey-850_19	30	86	he	-PRON-	PRP
homer-odyssey-850_19	30	87	may	may	MD
homer-odyssey-850_19	30	88	do	do	VB
homer-odyssey-850_19	30	89	so	so	RB
homer-odyssey-850_19	30	90	.	.	.
homer-odyssey-850_19	31	1	Moreover	moreover	RB
homer-odyssey-850_19	31	2	,	,	,
homer-odyssey-850_19	31	3	though	though	IN
homer-odyssey-850_19	31	4	he	-PRON-	PRP
homer-odyssey-850_19	31	5	be	be	VB
homer-odyssey-850_19	31	6	dead	dead	JJ
homer-odyssey-850_19	31	7	as	as	IN
homer-odyssey-850_19	31	8	you	-PRON-	PRP
homer-odyssey-850_19	31	9	think	think	VBP
homer-odyssey-850_19	31	10	he	-PRON-	PRP
homer-odyssey-850_19	31	11	is	be	VBZ
homer-odyssey-850_19	31	12	,	,	,
homer-odyssey-850_19	31	13	yet	yet	CC
homer-odyssey-850_19	31	14	by	by	IN
homer-odyssey-850_19	31	15	Apollo	apollo	NNP
homer-odyssey-850_19	31	16	's	's	POS
homer-odyssey-850_19	31	17	will	will	MD
homer-odyssey-850_19	31	18	he	-PRON-	PRP
homer-odyssey-850_19	31	19	has	have	VBZ
homer-odyssey-850_19	31	20	left	leave	VBN
homer-odyssey-850_19	31	21	a	a	DT
homer-odyssey-850_19	31	22	son	son	NN
homer-odyssey-850_19	31	23	behind	behind	IN
homer-odyssey-850_19	31	24	him	-PRON-	PRP
homer-odyssey-850_19	31	25	,	,	,
homer-odyssey-850_19	31	26	Telemachus	telemachus	NNP
homer-odyssey-850_19	31	27	,	,	,
homer-odyssey-850_19	31	28	who	who	WP
homer-odyssey-850_19	31	29	will	will	MD
homer-odyssey-850_19	31	30	note	note	VB
homer-odyssey-850_19	31	31	anything	anything	NN
homer-odyssey-850_19	31	32	done	do	VBN
homer-odyssey-850_19	31	33	amiss	amiss	RB
homer-odyssey-850_19	31	34	by	by	IN
homer-odyssey-850_19	31	35	the	the	DT
homer-odyssey-850_19	31	36	maids	maid	NNS
homer-odyssey-850_19	31	37	in	in	IN
homer-odyssey-850_19	31	38	the	the	DT
homer-odyssey-850_19	31	39	house	house	NN
homer-odyssey-850_19	31	40	,	,	,
homer-odyssey-850_19	31	41	for	for	IN
homer-odyssey-850_19	31	42	he	-PRON-	PRP
homer-odyssey-850_19	31	43	is	be	VBZ
homer-odyssey-850_19	31	44	now	now	RB
homer-odyssey-850_19	31	45	no	no	RB
homer-odyssey-850_19	31	46	longer	longer	RBR
homer-odyssey-850_19	31	47	in	in	IN
homer-odyssey-850_19	31	48	his	-PRON-	PRP$
homer-odyssey-850_19	31	49	boyhood	boyhood	NN
homer-odyssey-850_19	31	50	.	.	.
homer-odyssey-850_19	31	51	"	"	''
homer-odyssey-850_19	32	1	Penelope	penelope	NNP
homer-odyssey-850_19	32	2	heard	hear	VBD
homer-odyssey-850_19	32	3	what	what	WP
homer-odyssey-850_19	32	4	he	-PRON-	PRP
homer-odyssey-850_19	32	5	was	be	VBD
homer-odyssey-850_19	32	6	saying	say	VBG
homer-odyssey-850_19	32	7	and	and	CC
homer-odyssey-850_19	32	8	scolded	scold	VBD
homer-odyssey-850_19	32	9	the	the	DT
homer-odyssey-850_19	32	10	maid	maid	NN
homer-odyssey-850_19	32	11	,	,	,
homer-odyssey-850_19	32	12	"	"	``
homer-odyssey-850_19	32	13	Impudent	impudent	NN
homer-odyssey-850_19	32	14	baggage	baggage	NN
homer-odyssey-850_19	32	15	,	,	,
homer-odyssey-850_19	32	16	"	"	''
homer-odyssey-850_19	32	17	said	say	VBD
homer-odyssey-850_19	32	18	she	-PRON-	PRP
homer-odyssey-850_19	32	19	,	,	,
homer-odyssey-850_19	32	20	"	"	``
homer-odyssey-850_19	32	21	I	-PRON-	PRP
homer-odyssey-850_19	32	22	see	see	VBP
homer-odyssey-850_19	32	23	how	how	WRB
homer-odyssey-850_19	32	24	abominably	abominably	RB
homer-odyssey-850_19	32	25	you	-PRON-	PRP
homer-odyssey-850_19	32	26	are	be	VBP
homer-odyssey-850_19	32	27	behaving	behave	VBG
homer-odyssey-850_19	32	28	,	,	,
homer-odyssey-850_19	32	29	and	and	CC
homer-odyssey-850_19	32	30	you	-PRON-	PRP
homer-odyssey-850_19	32	31	shall	shall	MD
homer-odyssey-850_19	32	32	smart	smart	VB
homer-odyssey-850_19	32	33	for	for	IN
homer-odyssey-850_19	32	34	it	-PRON-	PRP
homer-odyssey-850_19	32	35	.	.	.
homer-odyssey-850_19	33	1	You	-PRON-	PRP
homer-odyssey-850_19	33	2	knew	know	VBD
homer-odyssey-850_19	33	3	perfectly	perfectly	RB
homer-odyssey-850_19	33	4	well	well	RB
homer-odyssey-850_19	33	5	,	,	,
homer-odyssey-850_19	33	6	for	for	IN
homer-odyssey-850_19	33	7	I	-PRON-	PRP
homer-odyssey-850_19	33	8	told	tell	VBD
homer-odyssey-850_19	33	9	you	-PRON-	PRP
homer-odyssey-850_19	33	10	myself	-PRON-	PRP
homer-odyssey-850_19	33	11	,	,	,
homer-odyssey-850_19	33	12	that	that	IN
homer-odyssey-850_19	33	13	I	-PRON-	PRP
homer-odyssey-850_19	33	14	was	be	VBD
homer-odyssey-850_19	33	15	going	go	VBG
homer-odyssey-850_19	33	16	to	to	TO
homer-odyssey-850_19	33	17	see	see	VB
homer-odyssey-850_19	33	18	the	the	DT
homer-odyssey-850_19	33	19	stranger	stranger	NN
homer-odyssey-850_19	33	20	and	and	CC
homer-odyssey-850_19	33	21	ask	ask	VB
homer-odyssey-850_19	33	22	him	-PRON-	PRP
homer-odyssey-850_19	33	23	about	about	IN
homer-odyssey-850_19	33	24	my	-PRON-	PRP$
homer-odyssey-850_19	33	25	husband	husband	NN
homer-odyssey-850_19	33	26	,	,	,
homer-odyssey-850_19	33	27	for	for	IN
homer-odyssey-850_19	33	28	whose	whose	WP$
homer-odyssey-850_19	33	29	sake	sake	NN
homer-odyssey-850_19	33	30	I	-PRON-	PRP
homer-odyssey-850_19	33	31	am	be	VBP
homer-odyssey-850_19	33	32	in	in	IN
homer-odyssey-850_19	33	33	such	such	JJ
homer-odyssey-850_19	33	34	continual	continual	JJ
homer-odyssey-850_19	33	35	sorrow	sorrow	NN
homer-odyssey-850_19	33	36	.	.	.
homer-odyssey-850_19	33	37	"	"	''
homer-odyssey-850_19	34	1	Then	then	RB
homer-odyssey-850_19	34	2	she	-PRON-	PRP
homer-odyssey-850_19	34	3	said	say	VBD
homer-odyssey-850_19	34	4	to	to	IN
homer-odyssey-850_19	34	5	her	-PRON-	PRP$
homer-odyssey-850_19	34	6	head	head	NN
homer-odyssey-850_19	34	7	waiting	wait	VBG
homer-odyssey-850_19	34	8	woman	woman	NN
homer-odyssey-850_19	34	9	Eurynome	eurynome	NNP
homer-odyssey-850_19	34	10	,	,	,
homer-odyssey-850_19	34	11	"	"	``
homer-odyssey-850_19	34	12	Bring	bring	VB
homer-odyssey-850_19	34	13	a	a	DT
homer-odyssey-850_19	34	14	seat	seat	NN
homer-odyssey-850_19	34	15	with	with	IN
homer-odyssey-850_19	34	16	a	a	DT
homer-odyssey-850_19	34	17	fleece	fleece	NN
homer-odyssey-850_19	34	18	upon	upon	IN
homer-odyssey-850_19	34	19	it	-PRON-	PRP
homer-odyssey-850_19	34	20	,	,	,
homer-odyssey-850_19	34	21	for	for	IN
homer-odyssey-850_19	34	22	the	the	DT
homer-odyssey-850_19	34	23	stranger	stranger	NN
homer-odyssey-850_19	34	24	to	to	TO
homer-odyssey-850_19	34	25	sit	sit	VB
homer-odyssey-850_19	34	26	upon	upon	IN
homer-odyssey-850_19	34	27	while	while	IN
homer-odyssey-850_19	34	28	he	-PRON-	PRP
homer-odyssey-850_19	34	29	tells	tell	VBZ
homer-odyssey-850_19	34	30	his	-PRON-	PRP$
homer-odyssey-850_19	34	31	story	story	NN
homer-odyssey-850_19	34	32	,	,	,
homer-odyssey-850_19	34	33	and	and	CC
homer-odyssey-850_19	34	34	listens	listen	VBZ
homer-odyssey-850_19	34	35	to	to	IN
homer-odyssey-850_19	34	36	what	what	WP
homer-odyssey-850_19	34	37	I	-PRON-	PRP
homer-odyssey-850_19	34	38	have	have	VBP
homer-odyssey-850_19	34	39	to	to	TO
homer-odyssey-850_19	34	40	say	say	VB
homer-odyssey-850_19	34	41	.	.	.
homer-odyssey-850_19	35	1	I	-PRON-	PRP
homer-odyssey-850_19	35	2	wish	wish	VBP
homer-odyssey-850_19	35	3	to	to	TO
homer-odyssey-850_19	35	4	ask	ask	VB
homer-odyssey-850_19	35	5	him	-PRON-	PRP
homer-odyssey-850_19	35	6	some	some	DT
homer-odyssey-850_19	35	7	questions	question	NNS
homer-odyssey-850_19	35	8	.	.	.
homer-odyssey-850_19	35	9	"	"	''
homer-odyssey-850_19	36	1	Eurynome	eurynome	NNP
homer-odyssey-850_19	36	2	brought	bring	VBD
homer-odyssey-850_19	36	3	the	the	DT
homer-odyssey-850_19	36	4	seat	seat	NN
homer-odyssey-850_19	36	5	at	at	IN
homer-odyssey-850_19	36	6	once	once	RB
homer-odyssey-850_19	36	7	and	and	CC
homer-odyssey-850_19	36	8	set	set	VBD
homer-odyssey-850_19	36	9	a	a	DT
homer-odyssey-850_19	36	10	fleece	fleece	NN
homer-odyssey-850_19	36	11	upon	upon	IN
homer-odyssey-850_19	36	12	it	-PRON-	PRP
homer-odyssey-850_19	36	13	,	,	,
homer-odyssey-850_19	36	14	and	and	CC
homer-odyssey-850_19	36	15	as	as	RB
homer-odyssey-850_19	36	16	soon	soon	RB
homer-odyssey-850_19	36	17	as	as	IN
homer-odyssey-850_19	36	18	Ulysses	ulyss	NNS
homer-odyssey-850_19	36	19	had	have	VBD
homer-odyssey-850_19	36	20	sat	sit	VBN
homer-odyssey-850_19	36	21	down	down	IN
homer-odyssey-850_19	36	22	Penelope	penelope	NNP
homer-odyssey-850_19	36	23	began	begin	VBD
homer-odyssey-850_19	36	24	by	by	IN
homer-odyssey-850_19	36	25	saying	say	VBG
homer-odyssey-850_19	36	26	,	,	,
homer-odyssey-850_19	36	27	"	"	``
homer-odyssey-850_19	36	28	Stranger	stranger	NNP
homer-odyssey-850_19	36	29	,	,	,
homer-odyssey-850_19	36	30	I	-PRON-	PRP
homer-odyssey-850_19	36	31	shall	shall	MD
homer-odyssey-850_19	36	32	first	first	RB
homer-odyssey-850_19	36	33	ask	ask	VB
homer-odyssey-850_19	36	34	you	-PRON-	PRP
homer-odyssey-850_19	36	35	who	who	WP
homer-odyssey-850_19	36	36	and	and	CC
homer-odyssey-850_19	36	37	whence	whence	NN
homer-odyssey-850_19	36	38	are	be	VBP
homer-odyssey-850_19	36	39	you	-PRON-	PRP
homer-odyssey-850_19	36	40	?	?	.
homer-odyssey-850_19	37	1	Tell	tell	VB
homer-odyssey-850_19	37	2	me	-PRON-	PRP
homer-odyssey-850_19	37	3	of	of	IN
homer-odyssey-850_19	37	4	your	-PRON-	PRP$
homer-odyssey-850_19	37	5	town	town	NN
homer-odyssey-850_19	37	6	and	and	CC
homer-odyssey-850_19	37	7	parents	parent	NNS
homer-odyssey-850_19	37	8	.	.	.
homer-odyssey-850_19	37	9	"	"	''
homer-odyssey-850_19	38	1	"	"	``
homer-odyssey-850_19	38	2	Madam	madam	NNP
homer-odyssey-850_19	38	3	,	,	,
homer-odyssey-850_19	38	4	"	"	''
homer-odyssey-850_19	38	5	answered	answer	VBD
homer-odyssey-850_19	38	6	Ulysses	ulyss	NNS
homer-odyssey-850_19	38	7	,	,	,
homer-odyssey-850_19	38	8	"	"	''
homer-odyssey-850_19	38	9	who	who	WP
homer-odyssey-850_19	38	10	on	on	IN
homer-odyssey-850_19	38	11	the	the	DT
homer-odyssey-850_19	38	12	face	face	NN
homer-odyssey-850_19	38	13	of	of	IN
homer-odyssey-850_19	38	14	the	the	DT
homer-odyssey-850_19	38	15	whole	whole	JJ
homer-odyssey-850_19	38	16	earth	earth	NN
homer-odyssey-850_19	38	17	can	can	MD
homer-odyssey-850_19	38	18	dare	dare	VB
homer-odyssey-850_19	38	19	to	to	TO
homer-odyssey-850_19	38	20	chide	chide	VB
homer-odyssey-850_19	38	21	with	with	IN
homer-odyssey-850_19	38	22	you	-PRON-	PRP
homer-odyssey-850_19	38	23	?	?	.
homer-odyssey-850_19	39	1	Your	-PRON-	PRP$
homer-odyssey-850_19	39	2	fame	fame	NN
homer-odyssey-850_19	39	3	reaches	reach	VBZ
homer-odyssey-850_19	39	4	the	the	DT
homer-odyssey-850_19	39	5	firmament	firmament	NN
homer-odyssey-850_19	39	6	of	of	IN
homer-odyssey-850_19	39	7	heaven	heaven	NNP
homer-odyssey-850_19	39	8	itself	-PRON-	PRP
homer-odyssey-850_19	39	9	;	;	:
homer-odyssey-850_19	39	10	you	-PRON-	PRP
homer-odyssey-850_19	39	11	are	be	VBP
homer-odyssey-850_19	39	12	like	like	IN
homer-odyssey-850_19	39	13	some	some	DT
homer-odyssey-850_19	39	14	blameless	blameless	JJ
homer-odyssey-850_19	39	15	king	king	NN
homer-odyssey-850_19	39	16	,	,	,
homer-odyssey-850_19	39	17	who	who	WP
homer-odyssey-850_19	39	18	upholds	uphold	VBZ
homer-odyssey-850_19	39	19	righteousness	righteousness	NN
homer-odyssey-850_19	39	20	,	,	,
homer-odyssey-850_19	39	21	as	as	IN
homer-odyssey-850_19	39	22	the	the	DT
homer-odyssey-850_19	39	23	monarch	monarch	NN
homer-odyssey-850_19	39	24	over	over	IN
homer-odyssey-850_19	39	25	a	a	DT
homer-odyssey-850_19	39	26	great	great	JJ
homer-odyssey-850_19	39	27	and	and	CC
homer-odyssey-850_19	39	28	valiant	valiant	JJ
homer-odyssey-850_19	39	29	nation	nation	NN
homer-odyssey-850_19	39	30	:	:	:
homer-odyssey-850_19	39	31	the	the	DT
homer-odyssey-850_19	39	32	earth	earth	NN
homer-odyssey-850_19	39	33	yields	yield	VBZ
homer-odyssey-850_19	39	34	its	-PRON-	PRP$
homer-odyssey-850_19	39	35	wheat	wheat	NN
homer-odyssey-850_19	39	36	and	and	CC
homer-odyssey-850_19	39	37	barley	barley	NN
homer-odyssey-850_19	39	38	,	,	,
homer-odyssey-850_19	39	39	the	the	DT
homer-odyssey-850_19	39	40	trees	tree	NNS
homer-odyssey-850_19	39	41	are	be	VBP
homer-odyssey-850_19	39	42	loaded	load	VBN
homer-odyssey-850_19	39	43	with	with	IN
homer-odyssey-850_19	39	44	fruit	fruit	NN
homer-odyssey-850_19	39	45	,	,	,
homer-odyssey-850_19	39	46	the	the	DT
homer-odyssey-850_19	39	47	ewes	ewes	NN
homer-odyssey-850_19	39	48	bring	bring	VBP
homer-odyssey-850_19	39	49	forth	forth	RP
homer-odyssey-850_19	39	50	lambs	lamb	NNS
homer-odyssey-850_19	39	51	,	,	,
homer-odyssey-850_19	39	52	and	and	CC
homer-odyssey-850_19	39	53	the	the	DT
homer-odyssey-850_19	39	54	sea	sea	NN
homer-odyssey-850_19	39	55	abounds	abound	VBZ
homer-odyssey-850_19	39	56	with	with	IN
homer-odyssey-850_19	39	57	fish	fish	NN
homer-odyssey-850_19	39	58	by	by	IN
homer-odyssey-850_19	39	59	reason	reason	NN
homer-odyssey-850_19	39	60	of	of	IN
homer-odyssey-850_19	39	61	his	-PRON-	PRP$
homer-odyssey-850_19	39	62	virtues	virtue	NNS
homer-odyssey-850_19	39	63	,	,	,
homer-odyssey-850_19	39	64	and	and	CC
homer-odyssey-850_19	39	65	his	-PRON-	PRP$
homer-odyssey-850_19	39	66	people	people	NNS
homer-odyssey-850_19	39	67	do	do	VBP
homer-odyssey-850_19	39	68	good	good	JJ
homer-odyssey-850_19	39	69	deeds	deed	NNS
homer-odyssey-850_19	39	70	under	under	IN
homer-odyssey-850_19	39	71	him	-PRON-	PRP
homer-odyssey-850_19	39	72	.	.	.
homer-odyssey-850_19	40	1	Nevertheless	nevertheless	RB
homer-odyssey-850_19	40	2	,	,	,
homer-odyssey-850_19	40	3	as	as	IN
homer-odyssey-850_19	40	4	I	-PRON-	PRP
homer-odyssey-850_19	40	5	sit	sit	VBP
homer-odyssey-850_19	40	6	here	here	RB
homer-odyssey-850_19	40	7	in	in	IN
homer-odyssey-850_19	40	8	your	-PRON-	PRP$
homer-odyssey-850_19	40	9	house	house	NN
homer-odyssey-850_19	40	10	,	,	,
homer-odyssey-850_19	40	11	ask	ask	VB
homer-odyssey-850_19	40	12	me	-PRON-	PRP
homer-odyssey-850_19	40	13	some	some	DT
homer-odyssey-850_19	40	14	other	other	JJ
homer-odyssey-850_19	40	15	question	question	NN
homer-odyssey-850_19	40	16	and	and	CC
homer-odyssey-850_19	40	17	do	do	VBP
homer-odyssey-850_19	40	18	not	not	RB
homer-odyssey-850_19	40	19	seek	seek	VB
homer-odyssey-850_19	40	20	to	to	TO
homer-odyssey-850_19	40	21	know	know	VB
homer-odyssey-850_19	40	22	my	-PRON-	PRP$
homer-odyssey-850_19	40	23	race	race	NN
homer-odyssey-850_19	40	24	and	and	CC
homer-odyssey-850_19	40	25	family	family	NN
homer-odyssey-850_19	40	26	,	,	,
homer-odyssey-850_19	40	27	or	or	CC
homer-odyssey-850_19	40	28	you	-PRON-	PRP
homer-odyssey-850_19	40	29	will	will	MD
homer-odyssey-850_19	40	30	recall	recall	VB
homer-odyssey-850_19	40	31	memories	memory	NNS
homer-odyssey-850_19	40	32	that	that	WDT
homer-odyssey-850_19	40	33	will	will	MD
homer-odyssey-850_19	40	34	yet	yet	RB
homer-odyssey-850_19	40	35	more	more	RBR
homer-odyssey-850_19	40	36	increase	increase	VB
homer-odyssey-850_19	40	37	my	-PRON-	PRP$
homer-odyssey-850_19	40	38	sorrow	sorrow	NN
homer-odyssey-850_19	40	39	.	.	.
homer-odyssey-850_19	41	1	I	-PRON-	PRP
homer-odyssey-850_19	41	2	am	be	VBP
homer-odyssey-850_19	41	3	full	full	JJ
homer-odyssey-850_19	41	4	of	of	IN
homer-odyssey-850_19	41	5	heaviness	heaviness	NN
homer-odyssey-850_19	41	6	,	,	,
homer-odyssey-850_19	41	7	but	but	CC
homer-odyssey-850_19	41	8	I	-PRON-	PRP
homer-odyssey-850_19	41	9	ought	ought	MD
homer-odyssey-850_19	41	10	not	not	RB
homer-odyssey-850_19	41	11	to	to	TO
homer-odyssey-850_19	41	12	sit	sit	VB
homer-odyssey-850_19	41	13	weeping	weeping	NN
homer-odyssey-850_19	41	14	and	and	CC
homer-odyssey-850_19	41	15	wailing	wail	VBG
homer-odyssey-850_19	41	16	in	in	IN
homer-odyssey-850_19	41	17	another	another	DT
homer-odyssey-850_19	41	18	person	person	NN
homer-odyssey-850_19	41	19	's	's	POS
homer-odyssey-850_19	41	20	house	house	NN
homer-odyssey-850_19	41	21	,	,	,
homer-odyssey-850_19	41	22	nor	nor	CC
homer-odyssey-850_19	41	23	is	be	VBZ
homer-odyssey-850_19	41	24	it	-PRON-	PRP
homer-odyssey-850_19	41	25	well	well	JJ
homer-odyssey-850_19	41	26	to	to	TO
homer-odyssey-850_19	41	27	be	be	VB
homer-odyssey-850_19	41	28	thus	thus	RB
homer-odyssey-850_19	41	29	grieving	grieve	VBG
homer-odyssey-850_19	41	30	continually	continually	RB
homer-odyssey-850_19	41	31	.	.	.
homer-odyssey-850_19	42	1	I	-PRON-	PRP
homer-odyssey-850_19	42	2	shall	shall	MD
homer-odyssey-850_19	42	3	have	have	VB
homer-odyssey-850_19	42	4	one	one	CD
homer-odyssey-850_19	42	5	of	of	IN
homer-odyssey-850_19	42	6	the	the	DT
homer-odyssey-850_19	42	7	servants	servant	NNS
homer-odyssey-850_19	42	8	or	or	CC
homer-odyssey-850_19	42	9	even	even	RB
homer-odyssey-850_19	42	10	yourself	-PRON-	PRP
homer-odyssey-850_19	42	11	complaining	complain	VBG
homer-odyssey-850_19	42	12	of	of	IN
homer-odyssey-850_19	42	13	me	-PRON-	PRP
homer-odyssey-850_19	42	14	,	,	,
homer-odyssey-850_19	42	15	and	and	CC
homer-odyssey-850_19	42	16	saying	say	VBG
homer-odyssey-850_19	42	17	that	that	IN
homer-odyssey-850_19	42	18	my	-PRON-	PRP$
homer-odyssey-850_19	42	19	eyes	eye	NNS
homer-odyssey-850_19	42	20	swim	swim	VBP
homer-odyssey-850_19	42	21	with	with	IN
homer-odyssey-850_19	42	22	tears	tear	NNS
homer-odyssey-850_19	42	23	because	because	IN
homer-odyssey-850_19	42	24	I	-PRON-	PRP
homer-odyssey-850_19	42	25	am	be	VBP
homer-odyssey-850_19	42	26	heavy	heavy	JJ
homer-odyssey-850_19	42	27	with	with	IN
homer-odyssey-850_19	42	28	wine	wine	NN
homer-odyssey-850_19	42	29	.	.	.
homer-odyssey-850_19	42	30	"	"	''
homer-odyssey-850_19	43	1	Then	then	RB
homer-odyssey-850_19	43	2	Penelope	penelope	NNP
homer-odyssey-850_19	43	3	answered	answer	VBD
homer-odyssey-850_19	43	4	,	,	,
homer-odyssey-850_19	43	5	"	"	''
homer-odyssey-850_19	43	6	Stranger	stranger	NNP
homer-odyssey-850_19	43	7	,	,	,
homer-odyssey-850_19	43	8	heaven	heaven	NNP
homer-odyssey-850_19	43	9	robbed	rob	VBD
homer-odyssey-850_19	43	10	me	-PRON-	PRP
homer-odyssey-850_19	43	11	of	of	IN
homer-odyssey-850_19	43	12	all	all	DT
homer-odyssey-850_19	43	13	beauty	beauty	NN
homer-odyssey-850_19	43	14	,	,	,
homer-odyssey-850_19	43	15	whether	whether	IN
homer-odyssey-850_19	43	16	of	of	IN
homer-odyssey-850_19	43	17	face	face	NN
homer-odyssey-850_19	43	18	or	or	CC
homer-odyssey-850_19	43	19	figure	figure	NN
homer-odyssey-850_19	43	20	,	,	,
homer-odyssey-850_19	43	21	when	when	WRB
homer-odyssey-850_19	43	22	the	the	DT
homer-odyssey-850_19	43	23	Argives	argives	NNPS
homer-odyssey-850_19	43	24	set	set	VBD
homer-odyssey-850_19	43	25	sail	sail	NN
homer-odyssey-850_19	43	26	for	for	IN
homer-odyssey-850_19	43	27	Troy	troy	NNP
homer-odyssey-850_19	43	28	and	and	CC
homer-odyssey-850_19	43	29	my	-PRON-	PRP$
homer-odyssey-850_19	43	30	dear	dear	JJ
homer-odyssey-850_19	43	31	husband	husband	NN
homer-odyssey-850_19	43	32	with	with	IN
homer-odyssey-850_19	43	33	them	-PRON-	PRP
homer-odyssey-850_19	43	34	.	.	.
homer-odyssey-850_19	44	1	If	if	IN
homer-odyssey-850_19	44	2	he	-PRON-	PRP
homer-odyssey-850_19	44	3	were	be	VBD
homer-odyssey-850_19	44	4	to	to	TO
homer-odyssey-850_19	44	5	return	return	VB
homer-odyssey-850_19	44	6	and	and	CC
homer-odyssey-850_19	44	7	look	look	VB
homer-odyssey-850_19	44	8	after	after	IN
homer-odyssey-850_19	44	9	my	-PRON-	PRP$
homer-odyssey-850_19	44	10	affairs	affair	NNS
homer-odyssey-850_19	44	11	I	-PRON-	PRP
homer-odyssey-850_19	44	12	should	should	MD
homer-odyssey-850_19	44	13	be	be	VB
homer-odyssey-850_19	44	14	both	both	DT
homer-odyssey-850_19	44	15	more	more	RBR
homer-odyssey-850_19	44	16	respected	respected	JJ
homer-odyssey-850_19	44	17	and	and	CC
homer-odyssey-850_19	44	18	should	should	MD
homer-odyssey-850_19	44	19	show	show	VB
homer-odyssey-850_19	44	20	a	a	DT
homer-odyssey-850_19	44	21	better	good	JJR
homer-odyssey-850_19	44	22	presence	presence	NN
homer-odyssey-850_19	44	23	to	to	IN
homer-odyssey-850_19	44	24	the	the	DT
homer-odyssey-850_19	44	25	world	world	NN
homer-odyssey-850_19	44	26	.	.	.
homer-odyssey-850_19	45	1	As	as	IN
homer-odyssey-850_19	45	2	it	-PRON-	PRP
homer-odyssey-850_19	45	3	is	be	VBZ
homer-odyssey-850_19	45	4	,	,	,
homer-odyssey-850_19	45	5	I	-PRON-	PRP
homer-odyssey-850_19	45	6	am	be	VBP
homer-odyssey-850_19	45	7	oppressed	oppress	VBN
homer-odyssey-850_19	45	8	with	with	IN
homer-odyssey-850_19	45	9	care	care	NN
homer-odyssey-850_19	45	10	,	,	,
homer-odyssey-850_19	45	11	and	and	CC
homer-odyssey-850_19	45	12	with	with	IN
homer-odyssey-850_19	45	13	the	the	DT
homer-odyssey-850_19	45	14	afflictions	affliction	NNS
homer-odyssey-850_19	45	15	which	which	WDT
homer-odyssey-850_19	45	16	heaven	heaven	NNP
homer-odyssey-850_19	45	17	has	have	VBZ
homer-odyssey-850_19	45	18	seen	see	VBN
homer-odyssey-850_19	45	19	fit	fit	JJ
homer-odyssey-850_19	45	20	to	to	IN
homer-odyssey-850_19	45	21	heap	heap	VB
homer-odyssey-850_19	45	22	upon	upon	IN
homer-odyssey-850_19	45	23	me	-PRON-	PRP
homer-odyssey-850_19	45	24	.	.	.
homer-odyssey-850_19	46	1	The	the	DT
homer-odyssey-850_19	46	2	chiefs	chief	NNS
homer-odyssey-850_19	46	3	from	from	IN
homer-odyssey-850_19	46	4	all	all	PDT
homer-odyssey-850_19	46	5	our	-PRON-	PRP$
homer-odyssey-850_19	46	6	islands--	islands--	NNP
homer-odyssey-850_19	46	7	Dulichium	dulichium	NNP
homer-odyssey-850_19	46	8	,	,	,
homer-odyssey-850_19	46	9	Same	same	NNP
homer-odyssey-850_19	46	10	,	,	,
homer-odyssey-850_19	46	11	and	and	CC
homer-odyssey-850_19	46	12	Zacynthus	zacynthus	NNP
homer-odyssey-850_19	46	13	,	,	,
homer-odyssey-850_19	46	14	as	as	IN
homer-odyssey-850_19	46	15	also	also	RB
homer-odyssey-850_19	46	16	from	from	IN
homer-odyssey-850_19	46	17	Ithaca	ithaca	NNP
homer-odyssey-850_19	46	18	itself	-PRON-	PRP
homer-odyssey-850_19	46	19	,	,	,
homer-odyssey-850_19	46	20	are	be	VBP
homer-odyssey-850_19	46	21	wooing	woo	VBG
homer-odyssey-850_19	46	22	me	-PRON-	PRP
homer-odyssey-850_19	46	23	against	against	IN
homer-odyssey-850_19	46	24	my	-PRON-	PRP$
homer-odyssey-850_19	46	25	will	will	NN
homer-odyssey-850_19	46	26	and	and	CC
homer-odyssey-850_19	46	27	are	be	VBP
homer-odyssey-850_19	46	28	wasting	waste	VBG
homer-odyssey-850_19	46	29	my	-PRON-	PRP$
homer-odyssey-850_19	46	30	estate	estate	NN
homer-odyssey-850_19	46	31	.	.	.
homer-odyssey-850_19	47	1	I	-PRON-	PRP
homer-odyssey-850_19	47	2	can	can	MD
homer-odyssey-850_19	47	3	therefore	therefore	RB
homer-odyssey-850_19	47	4	show	show	VB
homer-odyssey-850_19	47	5	no	no	DT
homer-odyssey-850_19	47	6	attention	attention	NN
homer-odyssey-850_19	47	7	to	to	IN
homer-odyssey-850_19	47	8	strangers	stranger	NNS
homer-odyssey-850_19	47	9	,	,	,
homer-odyssey-850_19	47	10	nor	nor	CC
homer-odyssey-850_19	47	11	suppliants	suppliant	NNS
homer-odyssey-850_19	47	12	,	,	,
homer-odyssey-850_19	47	13	nor	nor	CC
homer-odyssey-850_19	47	14	to	to	IN
homer-odyssey-850_19	47	15	people	people	NNS
homer-odyssey-850_19	47	16	who	who	WP
homer-odyssey-850_19	47	17	say	say	VBP
homer-odyssey-850_19	47	18	that	that	IN
homer-odyssey-850_19	47	19	they	-PRON-	PRP
homer-odyssey-850_19	47	20	are	be	VBP
homer-odyssey-850_19	47	21	skilled	skilled	JJ
homer-odyssey-850_19	47	22	artisans	artisan	NNS
homer-odyssey-850_19	47	23	,	,	,
homer-odyssey-850_19	47	24	but	but	CC
homer-odyssey-850_19	47	25	am	be	VBP
homer-odyssey-850_19	47	26	all	all	PDT
homer-odyssey-850_19	47	27	the	the	DT
homer-odyssey-850_19	47	28	time	time	NN
homer-odyssey-850_19	47	29	broken-	broken-	NN
homer-odyssey-850_19	47	30	hearted	heart	VBD
homer-odyssey-850_19	47	31	about	about	IN
homer-odyssey-850_19	47	32	Ulysses	ulyss	NNS
homer-odyssey-850_19	47	33	.	.	.
homer-odyssey-850_19	48	1	They	-PRON-	PRP
homer-odyssey-850_19	48	2	want	want	VBP
homer-odyssey-850_19	48	3	me	-PRON-	PRP
homer-odyssey-850_19	48	4	to	to	TO
homer-odyssey-850_19	48	5	marry	marry	VB
homer-odyssey-850_19	48	6	again	again	RB
homer-odyssey-850_19	48	7	at	at	IN
homer-odyssey-850_19	48	8	once	once	RB
homer-odyssey-850_19	48	9	,	,	,
homer-odyssey-850_19	48	10	and	and	CC
homer-odyssey-850_19	48	11	I	-PRON-	PRP
homer-odyssey-850_19	48	12	have	have	VBP
homer-odyssey-850_19	48	13	to	to	TO
homer-odyssey-850_19	48	14	invent	invent	VB
homer-odyssey-850_19	48	15	stratagems	stratagem	NNS
homer-odyssey-850_19	48	16	in	in	IN
homer-odyssey-850_19	48	17	order	order	NN
homer-odyssey-850_19	48	18	to	to	TO
homer-odyssey-850_19	48	19	deceive	deceive	VB
homer-odyssey-850_19	48	20	them	-PRON-	PRP
homer-odyssey-850_19	48	21	.	.	.
homer-odyssey-850_19	49	1	In	in	IN
homer-odyssey-850_19	49	2	the	the	DT
homer-odyssey-850_19	49	3	first	first	JJ
homer-odyssey-850_19	49	4	place	place	NN
homer-odyssey-850_19	49	5	heaven	heaven	NNP
homer-odyssey-850_19	49	6	put	put	VBD
homer-odyssey-850_19	49	7	it	-PRON-	PRP
homer-odyssey-850_19	49	8	in	in	IN
homer-odyssey-850_19	49	9	my	-PRON-	PRP$
homer-odyssey-850_19	49	10	mind	mind	NN
homer-odyssey-850_19	49	11	to	to	TO
homer-odyssey-850_19	49	12	set	set	VB
homer-odyssey-850_19	49	13	up	up	RP
homer-odyssey-850_19	49	14	a	a	DT
homer-odyssey-850_19	49	15	great	great	JJ
homer-odyssey-850_19	49	16	tambour-	tambour-	JJ
homer-odyssey-850_19	49	17	frame	frame	NN
homer-odyssey-850_19	49	18	in	in	IN
homer-odyssey-850_19	49	19	my	-PRON-	PRP$
homer-odyssey-850_19	49	20	room	room	NN
homer-odyssey-850_19	49	21	,	,	,
homer-odyssey-850_19	49	22	and	and	CC
homer-odyssey-850_19	49	23	to	to	TO
homer-odyssey-850_19	49	24	begin	begin	VB
homer-odyssey-850_19	49	25	working	work	VBG
homer-odyssey-850_19	49	26	upon	upon	IN
homer-odyssey-850_19	49	27	an	an	DT
homer-odyssey-850_19	49	28	enormous	enormous	JJ
homer-odyssey-850_19	49	29	piece	piece	NN
homer-odyssey-850_19	49	30	of	of	IN
homer-odyssey-850_19	49	31	fine	fine	JJ
homer-odyssey-850_19	49	32	needlework	needlework	NN
homer-odyssey-850_19	49	33	.	.	.
homer-odyssey-850_19	50	1	Then	then	RB
homer-odyssey-850_19	50	2	I	-PRON-	PRP
homer-odyssey-850_19	50	3	said	say	VBD
homer-odyssey-850_19	50	4	to	to	IN
homer-odyssey-850_19	50	5	them	-PRON-	PRP
homer-odyssey-850_19	50	6	,	,	,
homer-odyssey-850_19	50	7	'	'	''
homer-odyssey-850_19	50	8	Sweethearts	sweetheart	NNS
homer-odyssey-850_19	50	9	,	,	,
homer-odyssey-850_19	50	10	Ulysses	ulysses	NNPS
homer-odyssey-850_19	50	11	is	be	VBZ
homer-odyssey-850_19	50	12	indeed	indeed	RB
homer-odyssey-850_19	50	13	dead	dead	JJ
homer-odyssey-850_19	50	14	,	,	,
homer-odyssey-850_19	50	15	still	still	RB
homer-odyssey-850_19	50	16	,	,	,
homer-odyssey-850_19	50	17	do	do	VB
homer-odyssey-850_19	50	18	not	not	RB
homer-odyssey-850_19	50	19	press	press	VB
homer-odyssey-850_19	50	20	me	-PRON-	PRP
homer-odyssey-850_19	50	21	to	to	TO
homer-odyssey-850_19	50	22	marry	marry	VB
homer-odyssey-850_19	50	23	again	again	RB
homer-odyssey-850_19	50	24	immediately	immediately	RB
homer-odyssey-850_19	50	25	;	;	:
homer-odyssey-850_19	50	26	wait--	wait--	JJ
homer-odyssey-850_19	50	27	for	for	IN
homer-odyssey-850_19	50	28	I	-PRON-	PRP
homer-odyssey-850_19	50	29	would	would	MD
homer-odyssey-850_19	50	30	not	not	RB
homer-odyssey-850_19	50	31	have	have	VB
homer-odyssey-850_19	50	32	my	-PRON-	PRP$
homer-odyssey-850_19	50	33	skill	skill	NN
homer-odyssey-850_19	50	34	in	in	IN
homer-odyssey-850_19	50	35	needlework	needlework	NN
homer-odyssey-850_19	50	36	perish	perish	NN
homer-odyssey-850_19	50	37	unrecorded--	unrecorded--	RB
homer-odyssey-850_19	50	38	till	till	IN
homer-odyssey-850_19	50	39	I	-PRON-	PRP
homer-odyssey-850_19	50	40	have	have	VBP
homer-odyssey-850_19	50	41	finished	finish	VBN
homer-odyssey-850_19	50	42	making	make	VBG
homer-odyssey-850_19	50	43	a	a	DT
homer-odyssey-850_19	50	44	pall	pall	NN
homer-odyssey-850_19	50	45	for	for	IN
homer-odyssey-850_19	50	46	the	the	DT
homer-odyssey-850_19	50	47	hero	hero	NN
homer-odyssey-850_19	50	48	Laertes	laertes	NNP
homer-odyssey-850_19	50	49	,	,	,
homer-odyssey-850_19	50	50	to	to	TO
homer-odyssey-850_19	50	51	be	be	VB
homer-odyssey-850_19	50	52	ready	ready	JJ
homer-odyssey-850_19	50	53	against	against	IN
homer-odyssey-850_19	50	54	the	the	DT
homer-odyssey-850_19	50	55	time	time	NN
homer-odyssey-850_19	50	56	when	when	WRB
homer-odyssey-850_19	50	57	death	death	NN
homer-odyssey-850_19	50	58	shall	shall	MD
homer-odyssey-850_19	50	59	take	take	VB
homer-odyssey-850_19	50	60	him	-PRON-	PRP
homer-odyssey-850_19	50	61	.	.	.
homer-odyssey-850_19	51	1	He	-PRON-	PRP
homer-odyssey-850_19	51	2	is	be	VBZ
homer-odyssey-850_19	51	3	very	very	RB
homer-odyssey-850_19	51	4	rich	rich	JJ
homer-odyssey-850_19	51	5	,	,	,
homer-odyssey-850_19	51	6	and	and	CC
homer-odyssey-850_19	51	7	the	the	DT
homer-odyssey-850_19	51	8	women	woman	NNS
homer-odyssey-850_19	51	9	of	of	IN
homer-odyssey-850_19	51	10	the	the	DT
homer-odyssey-850_19	51	11	place	place	NN
homer-odyssey-850_19	51	12	will	will	MD
homer-odyssey-850_19	51	13	talk	talk	VB
homer-odyssey-850_19	51	14	if	if	IN
homer-odyssey-850_19	51	15	he	-PRON-	PRP
homer-odyssey-850_19	51	16	is	be	VBZ
homer-odyssey-850_19	51	17	laid	lay	VBN
homer-odyssey-850_19	51	18	out	out	RP
homer-odyssey-850_19	51	19	without	without	IN
homer-odyssey-850_19	51	20	a	a	DT
homer-odyssey-850_19	51	21	pall	pall	NN
homer-odyssey-850_19	51	22	.	.	.
homer-odyssey-850_19	51	23	'	'	''
homer-odyssey-850_19	52	1	This	this	DT
homer-odyssey-850_19	52	2	was	be	VBD
homer-odyssey-850_19	52	3	what	what	WP
homer-odyssey-850_19	52	4	I	-PRON-	PRP
homer-odyssey-850_19	52	5	said	say	VBD
homer-odyssey-850_19	52	6	,	,	,
homer-odyssey-850_19	52	7	and	and	CC
homer-odyssey-850_19	52	8	they	-PRON-	PRP
homer-odyssey-850_19	52	9	assented	assent	VBD
homer-odyssey-850_19	52	10	;	;	:
homer-odyssey-850_19	52	11	whereon	whereon	NN
homer-odyssey-850_19	52	12	I	-PRON-	PRP
homer-odyssey-850_19	52	13	used	use	VBD
homer-odyssey-850_19	52	14	to	to	TO
homer-odyssey-850_19	52	15	keep	keep	VB
homer-odyssey-850_19	52	16	working	work	VBG
homer-odyssey-850_19	52	17	at	at	IN
homer-odyssey-850_19	52	18	my	-PRON-	PRP$
homer-odyssey-850_19	52	19	great	great	JJ
homer-odyssey-850_19	52	20	web	web	NN
homer-odyssey-850_19	52	21	all	all	DT
homer-odyssey-850_19	52	22	day	day	NN
homer-odyssey-850_19	52	23	long	long	RB
homer-odyssey-850_19	52	24	,	,	,
homer-odyssey-850_19	52	25	but	but	CC
homer-odyssey-850_19	52	26	at	at	IN
homer-odyssey-850_19	52	27	night	night	NN
homer-odyssey-850_19	52	28	I	-PRON-	PRP
homer-odyssey-850_19	52	29	would	would	MD
homer-odyssey-850_19	52	30	unpick	unpick	VB
homer-odyssey-850_19	52	31	the	the	DT
homer-odyssey-850_19	52	32	stitches	stitch	NNS
homer-odyssey-850_19	52	33	again	again	RB
homer-odyssey-850_19	52	34	by	by	IN
homer-odyssey-850_19	52	35	torch	torch	NN
homer-odyssey-850_19	52	36	light	light	NN
homer-odyssey-850_19	52	37	.	.	.
homer-odyssey-850_19	53	1	I	-PRON-	PRP
homer-odyssey-850_19	53	2	fooled	fool	VBD
homer-odyssey-850_19	53	3	them	-PRON-	PRP
homer-odyssey-850_19	53	4	in	in	IN
homer-odyssey-850_19	53	5	this	this	DT
homer-odyssey-850_19	53	6	way	way	NN
homer-odyssey-850_19	53	7	for	for	IN
homer-odyssey-850_19	53	8	three	three	CD
homer-odyssey-850_19	53	9	years	year	NNS
homer-odyssey-850_19	53	10	without	without	IN
homer-odyssey-850_19	53	11	their	-PRON-	PRP$
homer-odyssey-850_19	53	12	finding	finding	NN
homer-odyssey-850_19	53	13	it	-PRON-	PRP
homer-odyssey-850_19	53	14	out	out	RP
homer-odyssey-850_19	53	15	,	,	,
homer-odyssey-850_19	53	16	but	but	CC
homer-odyssey-850_19	53	17	as	as	IN
homer-odyssey-850_19	53	18	time	time	NN
homer-odyssey-850_19	53	19	wore	wear	VBD
homer-odyssey-850_19	53	20	on	on	RB
homer-odyssey-850_19	53	21	and	and	CC
homer-odyssey-850_19	53	22	I	-PRON-	PRP
homer-odyssey-850_19	53	23	was	be	VBD
homer-odyssey-850_19	53	24	now	now	RB
homer-odyssey-850_19	53	25	in	in	IN
homer-odyssey-850_19	53	26	my	-PRON-	PRP$
homer-odyssey-850_19	53	27	fourth	fourth	JJ
homer-odyssey-850_19	53	28	year	year	NN
homer-odyssey-850_19	53	29	,	,	,
homer-odyssey-850_19	53	30	in	in	IN
homer-odyssey-850_19	53	31	the	the	DT
homer-odyssey-850_19	53	32	waning	waning	NN
homer-odyssey-850_19	53	33	of	of	IN
homer-odyssey-850_19	53	34	moons	moon	NNS
homer-odyssey-850_19	53	35	,	,	,
homer-odyssey-850_19	53	36	and	and	CC
homer-odyssey-850_19	53	37	many	many	JJ
homer-odyssey-850_19	53	38	days	day	NNS
homer-odyssey-850_19	53	39	had	have	VBD
homer-odyssey-850_19	53	40	been	be	VBN
homer-odyssey-850_19	53	41	accomplished	accomplish	VBN
homer-odyssey-850_19	53	42	,	,	,
homer-odyssey-850_19	53	43	those	those	DT
homer-odyssey-850_19	53	44	good	good	JJ
homer-odyssey-850_19	53	45	for	for	IN
homer-odyssey-850_19	53	46	nothing	nothing	NN
homer-odyssey-850_19	53	47	hussies	hussy	NNS
homer-odyssey-850_19	53	48	my	-PRON-	PRP$
homer-odyssey-850_19	53	49	maids	maid	NNS
homer-odyssey-850_19	53	50	betrayed	betray	VBD
homer-odyssey-850_19	53	51	me	-PRON-	PRP
homer-odyssey-850_19	53	52	to	to	IN
homer-odyssey-850_19	53	53	the	the	DT
homer-odyssey-850_19	53	54	suitors	suitor	NNS
homer-odyssey-850_19	53	55	,	,	,
homer-odyssey-850_19	53	56	who	who	WP
homer-odyssey-850_19	53	57	broke	break	VBD
homer-odyssey-850_19	53	58	in	in	RP
homer-odyssey-850_19	53	59	upon	upon	IN
homer-odyssey-850_19	53	60	me	-PRON-	PRP
homer-odyssey-850_19	53	61	and	and	CC
homer-odyssey-850_19	53	62	caught	catch	VBD
homer-odyssey-850_19	53	63	me	-PRON-	PRP
homer-odyssey-850_19	53	64	;	;	:
homer-odyssey-850_19	53	65	they	-PRON-	PRP
homer-odyssey-850_19	53	66	were	be	VBD
homer-odyssey-850_19	53	67	very	very	RB
homer-odyssey-850_19	53	68	angry	angry	JJ
homer-odyssey-850_19	53	69	with	with	IN
homer-odyssey-850_19	53	70	me	-PRON-	PRP
homer-odyssey-850_19	53	71	,	,	,
homer-odyssey-850_19	53	72	so	so	RB
homer-odyssey-850_19	53	73	I	-PRON-	PRP
homer-odyssey-850_19	53	74	was	be	VBD
homer-odyssey-850_19	53	75	forced	force	VBN
homer-odyssey-850_19	53	76	to	to	TO
homer-odyssey-850_19	53	77	finish	finish	VB
homer-odyssey-850_19	53	78	my	-PRON-	PRP$
homer-odyssey-850_19	53	79	work	work	NN
homer-odyssey-850_19	53	80	whether	whether	IN
homer-odyssey-850_19	53	81	I	-PRON-	PRP
homer-odyssey-850_19	53	82	would	would	MD
homer-odyssey-850_19	53	83	or	or	CC
homer-odyssey-850_19	53	84	no	no	UH
homer-odyssey-850_19	53	85	.	.	.
homer-odyssey-850_19	54	1	And	and	CC
homer-odyssey-850_19	54	2	now	now	RB
homer-odyssey-850_19	54	3	I	-PRON-	PRP
homer-odyssey-850_19	54	4	do	do	VBP
homer-odyssey-850_19	54	5	not	not	RB
homer-odyssey-850_19	54	6	see	see	VB
homer-odyssey-850_19	54	7	how	how	WRB
homer-odyssey-850_19	54	8	I	-PRON-	PRP
homer-odyssey-850_19	54	9	can	can	MD
homer-odyssey-850_19	54	10	find	find	VB
homer-odyssey-850_19	54	11	any	any	DT
homer-odyssey-850_19	54	12	further	further	JJ
homer-odyssey-850_19	54	13	shift	shift	NN
homer-odyssey-850_19	54	14	for	for	IN
homer-odyssey-850_19	54	15	getting	get	VBG
homer-odyssey-850_19	54	16	out	out	IN
homer-odyssey-850_19	54	17	of	of	IN
homer-odyssey-850_19	54	18	this	this	DT
homer-odyssey-850_19	54	19	marriage	marriage	NN
homer-odyssey-850_19	54	20	.	.	.
homer-odyssey-850_19	55	1	My	-PRON-	PRP$
homer-odyssey-850_19	55	2	parents	parent	NNS
homer-odyssey-850_19	55	3	are	be	VBP
homer-odyssey-850_19	55	4	putting	put	VBG
homer-odyssey-850_19	55	5	great	great	JJ
homer-odyssey-850_19	55	6	pressure	pressure	NN
homer-odyssey-850_19	55	7	upon	upon	IN
homer-odyssey-850_19	55	8	me	-PRON-	PRP
homer-odyssey-850_19	55	9	,	,	,
homer-odyssey-850_19	55	10	and	and	CC
homer-odyssey-850_19	55	11	my	-PRON-	PRP$
homer-odyssey-850_19	55	12	son	son	NN
homer-odyssey-850_19	55	13	chafes	chafe	VBZ
homer-odyssey-850_19	55	14	at	at	IN
homer-odyssey-850_19	55	15	the	the	DT
homer-odyssey-850_19	55	16	ravages	ravage	NNS
homer-odyssey-850_19	55	17	the	the	DT
homer-odyssey-850_19	55	18	suitors	suitor	NNS
homer-odyssey-850_19	55	19	are	be	VBP
homer-odyssey-850_19	55	20	making	make	VBG
homer-odyssey-850_19	55	21	upon	upon	IN
homer-odyssey-850_19	55	22	his	-PRON-	PRP$
homer-odyssey-850_19	55	23	estate	estate	NN
homer-odyssey-850_19	55	24	,	,	,
homer-odyssey-850_19	55	25	for	for	IN
homer-odyssey-850_19	55	26	he	-PRON-	PRP
homer-odyssey-850_19	55	27	is	be	VBZ
homer-odyssey-850_19	55	28	now	now	RB
homer-odyssey-850_19	55	29	old	old	JJ
homer-odyssey-850_19	55	30	enough	enough	RB
homer-odyssey-850_19	55	31	to	to	TO
homer-odyssey-850_19	55	32	understand	understand	VB
homer-odyssey-850_19	55	33	all	all	RB
homer-odyssey-850_19	55	34	about	about	IN
homer-odyssey-850_19	55	35	it	-PRON-	PRP
homer-odyssey-850_19	55	36	and	and	CC
homer-odyssey-850_19	55	37	is	be	VBZ
homer-odyssey-850_19	55	38	perfectly	perfectly	RB
homer-odyssey-850_19	55	39	able	able	JJ
homer-odyssey-850_19	55	40	to	to	TO
homer-odyssey-850_19	55	41	look	look	VB
homer-odyssey-850_19	55	42	after	after	IN
homer-odyssey-850_19	55	43	his	-PRON-	PRP$
homer-odyssey-850_19	55	44	own	own	JJ
homer-odyssey-850_19	55	45	affairs	affair	NNS
homer-odyssey-850_19	55	46	,	,	,
homer-odyssey-850_19	55	47	for	for	IN
homer-odyssey-850_19	55	48	heaven	heaven	NNP
homer-odyssey-850_19	55	49	has	have	VBZ
homer-odyssey-850_19	55	50	blessed	bless	VBN
homer-odyssey-850_19	55	51	him	-PRON-	PRP
homer-odyssey-850_19	55	52	with	with	IN
homer-odyssey-850_19	55	53	an	an	DT
homer-odyssey-850_19	55	54	excellent	excellent	JJ
homer-odyssey-850_19	55	55	disposition	disposition	NN
homer-odyssey-850_19	55	56	.	.	.
homer-odyssey-850_19	56	1	Still	still	RB
homer-odyssey-850_19	56	2	,	,	,
homer-odyssey-850_19	56	3	notwithstanding	notwithstanding	IN
homer-odyssey-850_19	56	4	all	all	PDT
homer-odyssey-850_19	56	5	this	this	DT
homer-odyssey-850_19	56	6	,	,	,
homer-odyssey-850_19	56	7	tell	tell	VB
homer-odyssey-850_19	56	8	me	-PRON-	PRP
homer-odyssey-850_19	56	9	who	who	WP
homer-odyssey-850_19	56	10	you	-PRON-	PRP
homer-odyssey-850_19	56	11	are	be	VBP
homer-odyssey-850_19	56	12	and	and	CC
homer-odyssey-850_19	56	13	where	where	WRB
homer-odyssey-850_19	56	14	you	-PRON-	PRP
homer-odyssey-850_19	56	15	come	come	VBP
homer-odyssey-850_19	56	16	from--	from--	NNS
homer-odyssey-850_19	56	17	for	for	IN
homer-odyssey-850_19	56	18	you	-PRON-	PRP
homer-odyssey-850_19	56	19	must	must	MD
homer-odyssey-850_19	56	20	have	have	VB
homer-odyssey-850_19	56	21	had	have	VBN
homer-odyssey-850_19	56	22	father	father	NN
homer-odyssey-850_19	56	23	and	and	CC
homer-odyssey-850_19	56	24	mother	mother	NN
homer-odyssey-850_19	56	25	of	of	IN
homer-odyssey-850_19	56	26	some	some	DT
homer-odyssey-850_19	56	27	sort	sort	NN
homer-odyssey-850_19	56	28	;	;	:
homer-odyssey-850_19	56	29	you	-PRON-	PRP
homer-odyssey-850_19	56	30	can	can	MD
homer-odyssey-850_19	56	31	not	not	RB
homer-odyssey-850_19	56	32	be	be	VB
homer-odyssey-850_19	56	33	the	the	DT
homer-odyssey-850_19	56	34	son	son	NN
homer-odyssey-850_19	56	35	of	of	IN
homer-odyssey-850_19	56	36	an	an	DT
homer-odyssey-850_19	56	37	oak	oak	NN
homer-odyssey-850_19	56	38	or	or	CC
homer-odyssey-850_19	56	39	of	of	IN
homer-odyssey-850_19	56	40	a	a	DT
homer-odyssey-850_19	56	41	rock	rock	NN
homer-odyssey-850_19	56	42	.	.	.
homer-odyssey-850_19	56	43	"	"	''
homer-odyssey-850_19	57	1	Then	then	RB
homer-odyssey-850_19	57	2	Ulysses	ulyss	NNS
homer-odyssey-850_19	57	3	answered	answer	VBD
homer-odyssey-850_19	57	4	,	,	,
homer-odyssey-850_19	57	5	"	"	''
homer-odyssey-850_19	57	6	Madam	madam	NNP
homer-odyssey-850_19	57	7	,	,	,
homer-odyssey-850_19	57	8	wife	wife	NN
homer-odyssey-850_19	57	9	of	of	IN
homer-odyssey-850_19	57	10	Ulysses	ulysses	NNPS
homer-odyssey-850_19	57	11	,	,	,
homer-odyssey-850_19	57	12	since	since	IN
homer-odyssey-850_19	57	13	you	-PRON-	PRP
homer-odyssey-850_19	57	14	persist	persist	VBP
homer-odyssey-850_19	57	15	in	in	IN
homer-odyssey-850_19	57	16	asking	ask	VBG
homer-odyssey-850_19	57	17	me	-PRON-	PRP
homer-odyssey-850_19	57	18	about	about	IN
homer-odyssey-850_19	57	19	my	-PRON-	PRP$
homer-odyssey-850_19	57	20	family	family	NN
homer-odyssey-850_19	57	21	,	,	,
homer-odyssey-850_19	57	22	I	-PRON-	PRP
homer-odyssey-850_19	57	23	will	will	MD
homer-odyssey-850_19	57	24	answer	answer	VB
homer-odyssey-850_19	57	25	,	,	,
homer-odyssey-850_19	57	26	no	no	RB
homer-odyssey-850_19	57	27	matter	matter	RB
homer-odyssey-850_19	57	28	what	what	WP
homer-odyssey-850_19	57	29	it	-PRON-	PRP
homer-odyssey-850_19	57	30	costs	cost	VBZ
homer-odyssey-850_19	57	31	me	-PRON-	PRP
homer-odyssey-850_19	57	32	:	:	:
homer-odyssey-850_19	57	33	people	people	NNS
homer-odyssey-850_19	57	34	must	must	MD
homer-odyssey-850_19	57	35	expect	expect	VB
homer-odyssey-850_19	57	36	to	to	TO
homer-odyssey-850_19	57	37	be	be	VB
homer-odyssey-850_19	57	38	pained	pain	VBN
homer-odyssey-850_19	57	39	when	when	WRB
homer-odyssey-850_19	57	40	they	-PRON-	PRP
homer-odyssey-850_19	57	41	have	have	VBP
homer-odyssey-850_19	57	42	been	be	VBN
homer-odyssey-850_19	57	43	exiles	exile	NNS
homer-odyssey-850_19	57	44	as	as	RB
homer-odyssey-850_19	57	45	long	long	RB
homer-odyssey-850_19	57	46	as	as	IN
homer-odyssey-850_19	57	47	I	-PRON-	PRP
homer-odyssey-850_19	57	48	have	have	VBP
homer-odyssey-850_19	57	49	,	,	,
homer-odyssey-850_19	57	50	and	and	CC
homer-odyssey-850_19	57	51	suffered	suffer	VBD
homer-odyssey-850_19	57	52	as	as	RB
homer-odyssey-850_19	57	53	much	much	RB
homer-odyssey-850_19	57	54	among	among	IN
homer-odyssey-850_19	57	55	as	as	RB
homer-odyssey-850_19	57	56	many	many	JJ
homer-odyssey-850_19	57	57	peoples	people	NNS
homer-odyssey-850_19	57	58	.	.	.
homer-odyssey-850_19	58	1	Nevertheless	nevertheless	RB
homer-odyssey-850_19	58	2	,	,	,
homer-odyssey-850_19	58	3	as	as	IN
homer-odyssey-850_19	58	4	regards	regard	VBZ
homer-odyssey-850_19	58	5	your	-PRON-	PRP$
homer-odyssey-850_19	58	6	question	question	NN
homer-odyssey-850_19	58	7	I	-PRON-	PRP
homer-odyssey-850_19	58	8	will	will	MD
homer-odyssey-850_19	58	9	tell	tell	VB
homer-odyssey-850_19	58	10	you	-PRON-	PRP
homer-odyssey-850_19	58	11	all	all	DT
homer-odyssey-850_19	58	12	you	-PRON-	PRP
homer-odyssey-850_19	58	13	ask	ask	VBP
homer-odyssey-850_19	58	14	.	.	.
homer-odyssey-850_19	59	1	There	there	EX
homer-odyssey-850_19	59	2	is	be	VBZ
homer-odyssey-850_19	59	3	a	a	DT
homer-odyssey-850_19	59	4	fair	fair	JJ
homer-odyssey-850_19	59	5	and	and	CC
homer-odyssey-850_19	59	6	fruitful	fruitful	JJ
homer-odyssey-850_19	59	7	island	island	NN
homer-odyssey-850_19	59	8	in	in	IN
homer-odyssey-850_19	59	9	mid-	mid-	JJ
homer-odyssey-850_19	59	10	ocean	ocean	NN
homer-odyssey-850_19	59	11	called	call	VBN
homer-odyssey-850_19	59	12	Crete	crete	NNP
homer-odyssey-850_19	59	13	;	;	:
homer-odyssey-850_19	59	14	it	-PRON-	PRP
homer-odyssey-850_19	59	15	is	be	VBZ
homer-odyssey-850_19	59	16	thickly	thickly	RB
homer-odyssey-850_19	59	17	peopled	people	VBN
homer-odyssey-850_19	59	18	and	and	CC
homer-odyssey-850_19	59	19	there	there	EX
homer-odyssey-850_19	59	20	are	be	VBP
homer-odyssey-850_19	59	21	ninety	ninety	CD
homer-odyssey-850_19	59	22	cities	city	NNS
homer-odyssey-850_19	59	23	in	in	IN
homer-odyssey-850_19	59	24	it	-PRON-	PRP
homer-odyssey-850_19	59	25	:	:	:
homer-odyssey-850_19	59	26	the	the	DT
homer-odyssey-850_19	59	27	people	people	NNS
homer-odyssey-850_19	59	28	speak	speak	VBP
homer-odyssey-850_19	59	29	many	many	JJ
homer-odyssey-850_19	59	30	different	different	JJ
homer-odyssey-850_19	59	31	languages	language	NNS
homer-odyssey-850_19	59	32	which	which	WDT
homer-odyssey-850_19	59	33	overlap	overlap	VBP
homer-odyssey-850_19	59	34	one	one	CD
homer-odyssey-850_19	59	35	another	another	DT
homer-odyssey-850_19	59	36	,	,	,
homer-odyssey-850_19	59	37	for	for	IN
homer-odyssey-850_19	59	38	there	there	EX
homer-odyssey-850_19	59	39	are	be	VBP
[...]
homer-odyssey-850_19	165	21	as	as	IN
homer-odyssey-850_19	165	22	usual	usual	JJ
homer-odyssey-850_19	165	23	.	.	.
homer-odyssey-850_19	165	24	"	"	''
homer-odyssey-850_19	166	1	"	"	``
homer-odyssey-850_19	166	2	This	this	DT
homer-odyssey-850_19	166	3	dream	dream	NN
homer-odyssey-850_19	166	4	,	,	,
homer-odyssey-850_19	166	5	Madam	madam	NNP
homer-odyssey-850_19	166	6	,	,	,
homer-odyssey-850_19	166	7	"	"	''
homer-odyssey-850_19	166	8	replied	reply	VBD
homer-odyssey-850_19	166	9	Ulysses	ulyss	NNS
homer-odyssey-850_19	166	10	,	,	,
homer-odyssey-850_19	166	11	"	"	''
homer-odyssey-850_19	166	12	can	can	MD
homer-odyssey-850_19	166	13	admit	admit	VB
homer-odyssey-850_19	166	14	but	but	IN
homer-odyssey-850_19	166	15	of	of	IN
homer-odyssey-850_19	166	16	one	one	CD
homer-odyssey-850_19	166	17	interpretation	interpretation	NN
homer-odyssey-850_19	166	18	,	,	,
homer-odyssey-850_19	166	19	for	for	IN
homer-odyssey-850_19	166	20	had	have	VBD
homer-odyssey-850_19	166	21	not	not	RB
homer-odyssey-850_19	166	22	Ulysses	ulyss	NNS
homer-odyssey-850_19	166	23	himself	-PRON-	PRP
homer-odyssey-850_19	166	24	told	tell	VBD
homer-odyssey-850_19	166	25	you	-PRON-	PRP
homer-odyssey-850_19	166	26	how	how	WRB
homer-odyssey-850_19	166	27	it	-PRON-	PRP
homer-odyssey-850_19	166	28	shall	shall	MD
homer-odyssey-850_19	166	29	be	be	VB
homer-odyssey-850_19	166	30	fulfilled	fulfil	VBN
homer-odyssey-850_19	166	31	?	?	.
homer-odyssey-850_19	167	1	The	the	DT
homer-odyssey-850_19	167	2	death	death	NN
homer-odyssey-850_19	167	3	of	of	IN
homer-odyssey-850_19	167	4	the	the	DT
homer-odyssey-850_19	167	5	suitors	suitor	NNS
homer-odyssey-850_19	167	6	is	be	VBZ
homer-odyssey-850_19	167	7	portended	portend	VBN
homer-odyssey-850_19	167	8	,	,	,
homer-odyssey-850_19	167	9	and	and	CC
homer-odyssey-850_19	167	10	not	not	RB
homer-odyssey-850_19	167	11	one	one	CD
homer-odyssey-850_19	167	12	single	single	JJ
homer-odyssey-850_19	167	13	one	one	CD
homer-odyssey-850_19	167	14	of	of	IN
homer-odyssey-850_19	167	15	them	-PRON-	PRP
homer-odyssey-850_19	167	16	will	will	MD
homer-odyssey-850_19	167	17	escape	escape	VB
homer-odyssey-850_19	167	18	.	.	.
homer-odyssey-850_19	167	19	"	"	''
homer-odyssey-850_19	168	1	And	and	CC
homer-odyssey-850_19	168	2	Penelope	penelope	NNP
homer-odyssey-850_19	168	3	answered	answer	VBD
homer-odyssey-850_19	168	4	,	,	,
homer-odyssey-850_19	168	5	"	"	''
homer-odyssey-850_19	168	6	Stranger	stranger	NNP
homer-odyssey-850_19	168	7	,	,	,
homer-odyssey-850_19	168	8	dreams	dream	NNS
homer-odyssey-850_19	168	9	are	be	VBP
homer-odyssey-850_19	168	10	very	very	RB
homer-odyssey-850_19	168	11	curious	curious	JJ
homer-odyssey-850_19	168	12	and	and	CC
homer-odyssey-850_19	168	13	unaccountable	unaccountable	JJ
homer-odyssey-850_19	168	14	things	thing	NNS
homer-odyssey-850_19	168	15	,	,	,
homer-odyssey-850_19	168	16	and	and	CC
homer-odyssey-850_19	168	17	they	-PRON-	PRP
homer-odyssey-850_19	168	18	do	do	VBP
homer-odyssey-850_19	168	19	not	not	RB
homer-odyssey-850_19	168	20	by	by	IN
homer-odyssey-850_19	168	21	any	any	DT
homer-odyssey-850_19	168	22	means	mean	NNS
homer-odyssey-850_19	168	23	invariably	invariably	RB
homer-odyssey-850_19	168	24	come	come	VB
homer-odyssey-850_19	168	25	true	true	JJ
homer-odyssey-850_19	168	26	.	.	.
homer-odyssey-850_19	169	1	There	there	EX
homer-odyssey-850_19	169	2	are	be	VBP
homer-odyssey-850_19	169	3	two	two	CD
homer-odyssey-850_19	169	4	gates	gate	NNS
homer-odyssey-850_19	169	5	through	through	IN
homer-odyssey-850_19	169	6	which	which	WDT
homer-odyssey-850_19	169	7	these	these	DT
homer-odyssey-850_19	169	8	unsubstantial	unsubstantial	JJ
homer-odyssey-850_19	169	9	fancies	fancy	NNS
homer-odyssey-850_19	169	10	proceed	proceed	VBP
homer-odyssey-850_19	169	11	;	;	:
homer-odyssey-850_19	169	12	the	the	DT
homer-odyssey-850_19	169	13	one	one	NN
homer-odyssey-850_19	169	14	is	be	VBZ
homer-odyssey-850_19	169	15	of	of	IN
homer-odyssey-850_19	169	16	horn	horn	NN
homer-odyssey-850_19	169	17	,	,	,
homer-odyssey-850_19	169	18	and	and	CC
homer-odyssey-850_19	169	19	the	the	DT
homer-odyssey-850_19	169	20	other	other	JJ
homer-odyssey-850_19	169	21	ivory	ivory	NN
homer-odyssey-850_19	169	22	.	.	.
homer-odyssey-850_19	170	1	Those	those	DT
homer-odyssey-850_19	170	2	that	that	WDT
homer-odyssey-850_19	170	3	come	come	VBP
homer-odyssey-850_19	170	4	through	through	IN
homer-odyssey-850_19	170	5	the	the	DT
homer-odyssey-850_19	170	6	gate	gate	NN
homer-odyssey-850_19	170	7	of	of	IN
homer-odyssey-850_19	170	8	ivory	ivory	NN
homer-odyssey-850_19	170	9	are	be	VBP
homer-odyssey-850_19	170	10	fatuous	fatuous	JJ
homer-odyssey-850_19	170	11	,	,	,
homer-odyssey-850_19	170	12	but	but	CC
homer-odyssey-850_19	170	13	those	those	DT
homer-odyssey-850_19	170	14	from	from	IN
homer-odyssey-850_19	170	15	the	the	DT
homer-odyssey-850_19	170	16	gate	gate	NN
homer-odyssey-850_19	170	17	of	of	IN
homer-odyssey-850_19	170	18	horn	horn	NN
homer-odyssey-850_19	170	19	mean	mean	VB
homer-odyssey-850_19	170	20	something	something	NN
homer-odyssey-850_19	170	21	to	to	IN
homer-odyssey-850_19	170	22	those	those	DT
homer-odyssey-850_19	170	23	that	that	WDT
homer-odyssey-850_19	170	24	see	see	VBP
homer-odyssey-850_19	170	25	them	-PRON-	PRP
homer-odyssey-850_19	170	26	.	.	.
homer-odyssey-850_19	171	1	I	-PRON-	PRP
homer-odyssey-850_19	171	2	do	do	VBP
homer-odyssey-850_19	171	3	not	not	RB
homer-odyssey-850_19	171	4	think	think	VB
homer-odyssey-850_19	171	5	,	,	,
homer-odyssey-850_19	171	6	however	however	RB
homer-odyssey-850_19	171	7	,	,	,
homer-odyssey-850_19	171	8	that	that	IN
homer-odyssey-850_19	171	9	my	-PRON-	PRP$
homer-odyssey-850_19	171	10	own	own	JJ
homer-odyssey-850_19	171	11	dream	dream	NN
homer-odyssey-850_19	171	12	came	come	VBD
homer-odyssey-850_19	171	13	through	through	IN
homer-odyssey-850_19	171	14	the	the	DT
homer-odyssey-850_19	171	15	gate	gate	NN
homer-odyssey-850_19	171	16	of	of	IN
homer-odyssey-850_19	171	17	horn	horn	NN
homer-odyssey-850_19	171	18	,	,	,
homer-odyssey-850_19	171	19	though	though	IN
homer-odyssey-850_19	171	20	I	-PRON-	PRP
homer-odyssey-850_19	171	21	and	and	CC
homer-odyssey-850_19	171	22	my	-PRON-	PRP$
homer-odyssey-850_19	171	23	son	son	NN
homer-odyssey-850_19	171	24	should	should	MD
homer-odyssey-850_19	171	25	be	be	VB
homer-odyssey-850_19	171	26	most	most	RBS
homer-odyssey-850_19	171	27	thankful	thankful	JJ
homer-odyssey-850_19	171	28	if	if	IN
homer-odyssey-850_19	171	29	it	-PRON-	PRP
homer-odyssey-850_19	171	30	proves	prove	VBZ
homer-odyssey-850_19	171	31	to	to	TO
homer-odyssey-850_19	171	32	have	have	VB
homer-odyssey-850_19	171	33	done	do	VBN
homer-odyssey-850_19	171	34	so	so	RB
homer-odyssey-850_19	171	35	.	.	.
homer-odyssey-850_19	172	1	Furthermore	furthermore	RB
homer-odyssey-850_19	172	2	I	-PRON-	PRP
homer-odyssey-850_19	172	3	say--	say--	VBP
homer-odyssey-850_19	172	4	and	and	CC
homer-odyssey-850_19	172	5	lay	lie	VBD
homer-odyssey-850_19	172	6	my	-PRON-	PRP$
homer-odyssey-850_19	172	7	saying	saying	NN
homer-odyssey-850_19	172	8	to	to	IN
homer-odyssey-850_19	172	9	your	-PRON-	PRP$
homer-odyssey-850_19	172	10	heart--	heart--	NN
homer-odyssey-850_19	172	11	the	the	DT
homer-odyssey-850_19	172	12	coming	come	VBG
homer-odyssey-850_19	172	13	dawn	dawn	NN
homer-odyssey-850_19	172	14	will	will	MD
homer-odyssey-850_19	172	15	usher	usher	RBR
homer-odyssey-850_19	172	16	in	in	IN
homer-odyssey-850_19	172	17	the	the	DT
homer-odyssey-850_19	172	18	ill-	ill-	NN
homer-odyssey-850_19	172	19	omened	omen	VBD
homer-odyssey-850_19	172	20	day	day	NN
homer-odyssey-850_19	172	21	that	that	WDT
homer-odyssey-850_19	172	22	is	be	VBZ
homer-odyssey-850_19	172	23	to	to	TO
homer-odyssey-850_19	172	24	sever	sever	VB
homer-odyssey-850_19	172	25	me	-PRON-	PRP
homer-odyssey-850_19	172	26	from	from	IN
homer-odyssey-850_19	172	27	the	the	DT
homer-odyssey-850_19	172	28	house	house	NN
homer-odyssey-850_19	172	29	of	of	IN
homer-odyssey-850_19	172	30	Ulysses	ulysses	NNPS
homer-odyssey-850_19	172	31	,	,	,
homer-odyssey-850_19	172	32	for	for	IN
homer-odyssey-850_19	172	33	I	-PRON-	PRP
homer-odyssey-850_19	172	34	am	be	VBP
homer-odyssey-850_19	172	35	about	about	JJ
homer-odyssey-850_19	172	36	to	to	TO
homer-odyssey-850_19	172	37	hold	hold	VB
homer-odyssey-850_19	172	38	a	a	DT
homer-odyssey-850_19	172	39	tournament	tournament	NN
homer-odyssey-850_19	172	40	of	of	IN
homer-odyssey-850_19	172	41	axes	ax	NNS
homer-odyssey-850_19	172	42	.	.	.
homer-odyssey-850_19	173	1	My	-PRON-	PRP$
homer-odyssey-850_19	173	2	husband	husband	NN
homer-odyssey-850_19	173	3	used	use	VBD
homer-odyssey-850_19	173	4	to	to	TO
homer-odyssey-850_19	173	5	set	set	VB
homer-odyssey-850_19	173	6	up	up	RP
homer-odyssey-850_19	173	7	twelve	twelve	CD
homer-odyssey-850_19	173	8	axes	ax	NNS
homer-odyssey-850_19	173	9	in	in	IN
homer-odyssey-850_19	173	10	the	the	DT
homer-odyssey-850_19	173	11	court	court	NN
homer-odyssey-850_19	173	12	,	,	,
homer-odyssey-850_19	173	13	one	one	CD
homer-odyssey-850_19	173	14	in	in	IN
homer-odyssey-850_19	173	15	front	front	NN
homer-odyssey-850_19	173	16	of	of	IN
homer-odyssey-850_19	173	17	the	the	DT
homer-odyssey-850_19	173	18	other	other	JJ
homer-odyssey-850_19	173	19	,	,	,
homer-odyssey-850_19	173	20	like	like	IN
homer-odyssey-850_19	173	21	the	the	DT
homer-odyssey-850_19	173	22	stays	stay	NNS
homer-odyssey-850_19	173	23	upon	upon	IN
homer-odyssey-850_19	173	24	which	which	WDT
homer-odyssey-850_19	173	25	a	a	DT
homer-odyssey-850_19	173	26	ship	ship	NN
homer-odyssey-850_19	173	27	is	be	VBZ
homer-odyssey-850_19	173	28	built	build	VBN
homer-odyssey-850_19	173	29	;	;	:
homer-odyssey-850_19	173	30	he	-PRON-	PRP
homer-odyssey-850_19	173	31	would	would	MD
homer-odyssey-850_19	173	32	then	then	RB
homer-odyssey-850_19	173	33	go	go	VB
homer-odyssey-850_19	173	34	back	back	RB
homer-odyssey-850_19	173	35	from	from	IN
homer-odyssey-850_19	173	36	them	-PRON-	PRP
homer-odyssey-850_19	173	37	and	and	CC
homer-odyssey-850_19	173	38	shoot	shoot	VB
homer-odyssey-850_19	173	39	an	an	DT
homer-odyssey-850_19	173	40	arrow	arrow	NN
homer-odyssey-850_19	173	41	through	through	IN
homer-odyssey-850_19	173	42	the	the	DT
homer-odyssey-850_19	173	43	whole	whole	JJ
homer-odyssey-850_19	173	44	twelve	twelve	CD
homer-odyssey-850_19	173	45	.	.	.
homer-odyssey-850_19	174	1	I	-PRON-	PRP
homer-odyssey-850_19	174	2	shall	shall	MD
homer-odyssey-850_19	174	3	make	make	VB
homer-odyssey-850_19	174	4	the	the	DT
homer-odyssey-850_19	174	5	suitors	suitor	NNS
homer-odyssey-850_19	174	6	try	try	VB
homer-odyssey-850_19	174	7	to	to	TO
homer-odyssey-850_19	174	8	do	do	VB
homer-odyssey-850_19	174	9	the	the	DT
homer-odyssey-850_19	174	10	same	same	JJ
homer-odyssey-850_19	174	11	thing	thing	NN
homer-odyssey-850_19	174	12	,	,	,
homer-odyssey-850_19	174	13	and	and	CC
homer-odyssey-850_19	174	14	whichever	whichev	WDT
homer-odyssey-850_19	174	15	of	of	IN
homer-odyssey-850_19	174	16	them	-PRON-	PRP
homer-odyssey-850_19	174	17	can	can	MD
homer-odyssey-850_19	174	18	string	str	VBG
homer-odyssey-850_19	174	19	the	the	DT
homer-odyssey-850_19	174	20	bow	bow	NN
homer-odyssey-850_19	174	21	most	most	RBS
homer-odyssey-850_19	174	22	easily	easily	RB
homer-odyssey-850_19	174	23	,	,	,
homer-odyssey-850_19	174	24	and	and	CC
homer-odyssey-850_19	174	25	send	send	VB
homer-odyssey-850_19	174	26	his	-PRON-	PRP$
homer-odyssey-850_19	174	27	arrow	arrow	NN
homer-odyssey-850_19	174	28	through	through	IN
homer-odyssey-850_19	174	29	all	all	PDT
homer-odyssey-850_19	174	30	the	the	DT
homer-odyssey-850_19	174	31	twelve	twelve	CD
homer-odyssey-850_19	174	32	axes	ax	NNS
homer-odyssey-850_19	174	33	,	,	,
homer-odyssey-850_19	174	34	him	-PRON-	PRP
homer-odyssey-850_19	174	35	will	will	MD
homer-odyssey-850_19	174	36	I	-PRON-	PRP
homer-odyssey-850_19	174	37	follow	follow	VB
homer-odyssey-850_19	174	38	,	,	,
homer-odyssey-850_19	174	39	and	and	CC
homer-odyssey-850_19	174	40	quit	quit	VBD
homer-odyssey-850_19	174	41	this	this	DT
homer-odyssey-850_19	174	42	house	house	NN
homer-odyssey-850_19	174	43	of	of	IN
homer-odyssey-850_19	174	44	my	-PRON-	PRP$
homer-odyssey-850_19	174	45	lawful	lawful	JJ
homer-odyssey-850_19	174	46	husband	husband	NN
homer-odyssey-850_19	174	47	,	,	,
homer-odyssey-850_19	174	48	so	so	RB
homer-odyssey-850_19	174	49	goodly	goodly	RB
homer-odyssey-850_19	174	50	and	and	CC
homer-odyssey-850_19	174	51	so	so	RB
homer-odyssey-850_19	174	52	abounding	abound	VBG
homer-odyssey-850_19	174	53	in	in	IN
homer-odyssey-850_19	174	54	wealth	wealth	NN
homer-odyssey-850_19	174	55	.	.	.
homer-odyssey-850_19	175	1	But	but	CC
homer-odyssey-850_19	175	2	even	even	RB
homer-odyssey-850_19	175	3	so	so	RB
homer-odyssey-850_19	175	4	,	,	,
homer-odyssey-850_19	175	5	I	-PRON-	PRP
homer-odyssey-850_19	175	6	doubt	doubt	VBP
homer-odyssey-850_19	175	7	not	not	RB
homer-odyssey-850_19	175	8	that	that	IN
homer-odyssey-850_19	175	9	I	-PRON-	PRP
homer-odyssey-850_19	175	10	shall	shall	MD
homer-odyssey-850_19	175	11	remember	remember	VB
homer-odyssey-850_19	175	12	it	-PRON-	PRP
homer-odyssey-850_19	175	13	in	in	IN
homer-odyssey-850_19	175	14	my	-PRON-	PRP$
homer-odyssey-850_19	175	15	dreams	dream	NNS
homer-odyssey-850_19	175	16	.	.	.
homer-odyssey-850_19	175	17	"	"	''
homer-odyssey-850_19	176	1	Then	then	RB
homer-odyssey-850_19	176	2	Ulysses	ulyss	NNS
homer-odyssey-850_19	176	3	answered	answer	VBD
homer-odyssey-850_19	176	4	,	,	,
homer-odyssey-850_19	176	5	"	"	''
homer-odyssey-850_19	176	6	Madam	madam	NNP
homer-odyssey-850_19	176	7	,	,	,
homer-odyssey-850_19	176	8	wife	wife	NN
homer-odyssey-850_19	176	9	of	of	IN
homer-odyssey-850_19	176	10	Ulysses	ulysses	NNPS
homer-odyssey-850_19	176	11	,	,	,
homer-odyssey-850_19	176	12	you	-PRON-	PRP
homer-odyssey-850_19	176	13	need	need	VBP
homer-odyssey-850_19	176	14	not	not	RB
homer-odyssey-850_19	176	15	defer	defer	VB
homer-odyssey-850_19	176	16	your	-PRON-	PRP$
homer-odyssey-850_19	176	17	tournament	tournament	NN
homer-odyssey-850_19	176	18	,	,	,
homer-odyssey-850_19	176	19	for	for	IN
homer-odyssey-850_19	176	20	Ulysses	ulyss	NNS
homer-odyssey-850_19	176	21	will	will	MD
homer-odyssey-850_19	176	22	return	return	VB
homer-odyssey-850_19	176	23	ere	ere	RB
homer-odyssey-850_19	176	24	ever	ever	RB
homer-odyssey-850_19	176	25	they	-PRON-	PRP
homer-odyssey-850_19	176	26	can	can	MD
homer-odyssey-850_19	176	27	string	string	VB
homer-odyssey-850_19	176	28	the	the	DT
homer-odyssey-850_19	176	29	bow	bow	NN
homer-odyssey-850_19	176	30	,	,	,
homer-odyssey-850_19	176	31	handle	handle	VB
homer-odyssey-850_19	176	32	it	-PRON-	PRP
homer-odyssey-850_19	176	33	how	how	WRB
homer-odyssey-850_19	176	34	they	-PRON-	PRP
homer-odyssey-850_19	176	35	will	will	MD
homer-odyssey-850_19	176	36	,	,	,
homer-odyssey-850_19	176	37	and	and	CC
homer-odyssey-850_19	176	38	send	send	VB
homer-odyssey-850_19	176	39	their	-PRON-	PRP$
homer-odyssey-850_19	176	40	arrows	arrow	NNS
homer-odyssey-850_19	176	41	through	through	IN
homer-odyssey-850_19	176	42	the	the	DT
homer-odyssey-850_19	176	43	iron	iron	NN
homer-odyssey-850_19	176	44	.	.	.
homer-odyssey-850_19	176	45	"	"	''
homer-odyssey-850_19	177	1	To	to	IN
homer-odyssey-850_19	177	2	this	this	DT
homer-odyssey-850_19	177	3	Penelope	penelope	NNP
homer-odyssey-850_19	177	4	said	say	VBD
homer-odyssey-850_19	177	5	,	,	,
homer-odyssey-850_19	177	6	"	"	``
homer-odyssey-850_19	177	7	As	as	RB
homer-odyssey-850_19	177	8	long	long	RB
homer-odyssey-850_19	177	9	,	,	,
homer-odyssey-850_19	177	10	sir	sir	NN
homer-odyssey-850_19	177	11	,	,	,
homer-odyssey-850_19	177	12	as	as	IN
homer-odyssey-850_19	177	13	you	-PRON-	PRP
homer-odyssey-850_19	177	14	will	will	MD
homer-odyssey-850_19	177	15	sit	sit	VB
homer-odyssey-850_19	177	16	here	here	RB
homer-odyssey-850_19	177	17	and	and	CC
homer-odyssey-850_19	177	18	talk	talk	VB
homer-odyssey-850_19	177	19	to	to	IN
homer-odyssey-850_19	177	20	me	-PRON-	PRP
homer-odyssey-850_19	177	21	,	,	,
homer-odyssey-850_19	177	22	I	-PRON-	PRP
homer-odyssey-850_19	177	23	can	can	MD
homer-odyssey-850_19	177	24	have	have	VB
homer-odyssey-850_19	177	25	no	no	DT
homer-odyssey-850_19	177	26	desire	desire	NN
homer-odyssey-850_19	177	27	to	to	TO
homer-odyssey-850_19	177	28	go	go	VB
homer-odyssey-850_19	177	29	to	to	IN
homer-odyssey-850_19	177	30	bed	bed	NN
homer-odyssey-850_19	177	31	.	.	.
homer-odyssey-850_19	178	1	Still	still	RB
homer-odyssey-850_19	178	2	,	,	,
homer-odyssey-850_19	178	3	people	people	NNS
homer-odyssey-850_19	178	4	can	can	MD
homer-odyssey-850_19	178	5	not	not	RB
homer-odyssey-850_19	178	6	do	do	VB
homer-odyssey-850_19	178	7	permanently	permanently	RB
homer-odyssey-850_19	178	8	without	without	IN
homer-odyssey-850_19	178	9	sleep	sleep	NN
homer-odyssey-850_19	178	10	,	,	,
homer-odyssey-850_19	178	11	and	and	CC
homer-odyssey-850_19	178	12	heaven	heaven	NNP
homer-odyssey-850_19	178	13	has	have	VBZ
homer-odyssey-850_19	178	14	appointed	appoint	VBN
homer-odyssey-850_19	178	15	us	-PRON-	PRP
homer-odyssey-850_19	178	16	dwellers	dweller	NNS
homer-odyssey-850_19	178	17	on	on	IN
homer-odyssey-850_19	178	18	earth	earth	NN
homer-odyssey-850_19	178	19	a	a	DT
homer-odyssey-850_19	178	20	time	time	NN
homer-odyssey-850_19	178	21	for	for	IN
homer-odyssey-850_19	178	22	all	all	DT
homer-odyssey-850_19	178	23	things	thing	NNS
homer-odyssey-850_19	178	24	.	.	.
homer-odyssey-850_19	179	1	I	-PRON-	PRP
homer-odyssey-850_19	179	2	will	will	MD
homer-odyssey-850_19	179	3	therefore	therefore	RB
homer-odyssey-850_19	179	4	go	go	VB
homer-odyssey-850_19	179	5	upstairs	upstairs	RB
homer-odyssey-850_19	179	6	and	and	CC
homer-odyssey-850_19	179	7	recline	recline	VB
homer-odyssey-850_19	179	8	upon	upon	IN
homer-odyssey-850_19	179	9	that	that	DT
homer-odyssey-850_19	179	10	couch	couch	NN
homer-odyssey-850_19	179	11	which	which	WDT
homer-odyssey-850_19	179	12	I	-PRON-	PRP
homer-odyssey-850_19	179	13	have	have	VBP
homer-odyssey-850_19	179	14	never	never	RB
homer-odyssey-850_19	179	15	ceased	cease	VBN
homer-odyssey-850_19	179	16	to	to	TO
homer-odyssey-850_19	179	17	flood	flood	VB
homer-odyssey-850_19	179	18	with	with	IN
homer-odyssey-850_19	179	19	my	-PRON-	PRP$
homer-odyssey-850_19	179	20	tears	tear	NNS
homer-odyssey-850_19	179	21	from	from	IN
homer-odyssey-850_19	179	22	the	the	DT
homer-odyssey-850_19	179	23	day	day	NN
homer-odyssey-850_19	179	24	Ulysses	ulysses	NNPS
homer-odyssey-850_19	179	25	set	set	VBN
homer-odyssey-850_19	179	26	out	out	RP
homer-odyssey-850_19	179	27	for	for	IN
homer-odyssey-850_19	179	28	the	the	DT
homer-odyssey-850_19	179	29	city	city	NN
homer-odyssey-850_19	179	30	with	with	IN
homer-odyssey-850_19	179	31	a	a	DT
homer-odyssey-850_19	179	32	hateful	hateful	JJ
homer-odyssey-850_19	179	33	name	name	NN
homer-odyssey-850_19	179	34	.	.	.
homer-odyssey-850_19	179	35	"	"	''
homer-odyssey-850_19	180	1	She	-PRON-	PRP
homer-odyssey-850_19	180	2	then	then	RB
homer-odyssey-850_19	180	3	went	go	VBD
homer-odyssey-850_19	180	4	upstairs	upstairs	RB
homer-odyssey-850_19	180	5	to	to	IN
homer-odyssey-850_19	180	6	her	-PRON-	PRP$
homer-odyssey-850_19	180	7	own	own	JJ
homer-odyssey-850_19	180	8	room	room	NN
homer-odyssey-850_19	180	9	,	,	,
homer-odyssey-850_19	180	10	not	not	RB
homer-odyssey-850_19	180	11	alone	alone	JJ
homer-odyssey-850_19	180	12	,	,	,
homer-odyssey-850_19	180	13	but	but	CC
homer-odyssey-850_19	180	14	attended	attend	VBN
homer-odyssey-850_19	180	15	by	by	IN
homer-odyssey-850_19	180	16	her	-PRON-	PRP$
homer-odyssey-850_19	180	17	maidens	maiden	NNS
homer-odyssey-850_19	180	18	,	,	,
homer-odyssey-850_19	180	19	and	and	CC
homer-odyssey-850_19	180	20	when	when	WRB
homer-odyssey-850_19	180	21	there	there	RB
homer-odyssey-850_19	180	22	,	,	,
homer-odyssey-850_19	180	23	she	-PRON-	PRP
homer-odyssey-850_19	180	24	lamented	lament	VBD
homer-odyssey-850_19	180	25	her	-PRON-	PRP$
homer-odyssey-850_19	180	26	dear	dear	JJ
homer-odyssey-850_19	180	27	husband	husband	NN
homer-odyssey-850_19	180	28	till	till	IN
homer-odyssey-850_19	180	29	Minerva	minerva	NNP
homer-odyssey-850_19	180	30	shed	shed	VBD
homer-odyssey-850_19	180	31	sweet	sweet	JJ
homer-odyssey-850_19	180	32	sleep	sleep	NN
homer-odyssey-850_19	180	33	over	over	IN
homer-odyssey-850_19	180	34	her	-PRON-	PRP$
homer-odyssey-850_19	180	35	eyelids	eyelid	NNS
homer-odyssey-850_19	180	36	.	.	.
