id	sid	tid	token	lemma	pos
homer-odyssey-850_15	1	1	MINERVA	minerva	NNP
homer-odyssey-850_15	1	2	SUMMONS	summon	NNS
homer-odyssey-850_15	1	3	TELEMACHUS	telemachus	VBP
homer-odyssey-850_15	1	4	FROM	from	IN
homer-odyssey-850_15	1	5	LACEDAEMON	lacedaemon	NNS
homer-odyssey-850_15	1	6	--	--	:
homer-odyssey-850_15	1	7	HE	he	PRP
homer-odyssey-850_15	1	8	MEETS	meets	RB
homer-odyssey-850_15	1	9	WITH	with	IN
homer-odyssey-850_15	1	10	THEOCLYMENUS	theoclymenus	NNP
homer-odyssey-850_15	1	11	AT	at	IN
homer-odyssey-850_15	1	12	PYLOS	pylos	NNP
homer-odyssey-850_15	1	13	AND	and	CC
homer-odyssey-850_15	1	14	BRINGS	bring	VBZ
homer-odyssey-850_15	1	15	HIM	him	NNP
homer-odyssey-850_15	1	16	TO	to	IN
homer-odyssey-850_15	1	17	ITHACA	ithaca	NNP
homer-odyssey-850_15	1	18	--	--	:
homer-odyssey-850_15	1	19	ON	on	IN
homer-odyssey-850_15	1	20	LANDING	landing	NNP
homer-odyssey-850_15	1	21	HE	he	PRP
homer-odyssey-850_15	1	22	GOES	go	VBZ
homer-odyssey-850_15	1	23	TO	to	IN
homer-odyssey-850_15	1	24	THE	the	DT
homer-odyssey-850_15	1	25	HUT	hut	NNP
homer-odyssey-850_15	1	26	OF	of	IN
homer-odyssey-850_15	1	27	EUMAEUS	eumaeus	NNP
homer-odyssey-850_15	1	28	.	.	.
homer-odyssey-850_15	2	1	But	but	CC
homer-odyssey-850_15	2	2	Minerva	minerva	NNP
homer-odyssey-850_15	2	3	went	go	VBD
homer-odyssey-850_15	2	4	to	to	IN
homer-odyssey-850_15	2	5	the	the	DT
homer-odyssey-850_15	2	6	fair	fair	JJ
homer-odyssey-850_15	2	7	city	city	NN
homer-odyssey-850_15	2	8	of	of	IN
homer-odyssey-850_15	2	9	Lacedaemon	lacedaemon	NNP
homer-odyssey-850_15	2	10	to	to	TO
homer-odyssey-850_15	2	11	tell	tell	VB
homer-odyssey-850_15	2	12	Ulysses	ulysses	NNPS
homer-odyssey-850_15	2	13	'	'	POS
homer-odyssey-850_15	2	14	son	son	NN
homer-odyssey-850_15	2	15	that	that	IN
homer-odyssey-850_15	2	16	he	-PRON-	PRP
homer-odyssey-850_15	2	17	was	be	VBD
homer-odyssey-850_15	2	18	to	to	TO
homer-odyssey-850_15	2	19	return	return	VB
homer-odyssey-850_15	2	20	at	at	IN
homer-odyssey-850_15	2	21	once	once	RB
homer-odyssey-850_15	2	22	.	.	.
homer-odyssey-850_15	3	1	She	-PRON-	PRP
homer-odyssey-850_15	3	2	found	find	VBD
homer-odyssey-850_15	3	3	him	-PRON-	PRP
homer-odyssey-850_15	3	4	and	and	CC
homer-odyssey-850_15	3	5	Pisistratus	pisistratus	NNP
homer-odyssey-850_15	3	6	sleeping	sleep	VBG
homer-odyssey-850_15	3	7	in	in	IN
homer-odyssey-850_15	3	8	the	the	DT
homer-odyssey-850_15	3	9	forecourt	forecourt	NN
homer-odyssey-850_15	3	10	of	of	IN
homer-odyssey-850_15	3	11	Menelaus	menelaus	NNP
homer-odyssey-850_15	3	12	's	's	POS
homer-odyssey-850_15	3	13	house	house	NN
homer-odyssey-850_15	3	14	;	;	:
homer-odyssey-850_15	3	15	Pisistratus	pisistratus	NNP
homer-odyssey-850_15	3	16	was	be	VBD
homer-odyssey-850_15	3	17	fast	fast	RB
homer-odyssey-850_15	3	18	asleep	asleep	JJ
homer-odyssey-850_15	3	19	,	,	,
homer-odyssey-850_15	3	20	but	but	CC
homer-odyssey-850_15	3	21	Telemachus	telemachus	NNP
homer-odyssey-850_15	3	22	could	could	MD
homer-odyssey-850_15	3	23	get	get	VB
homer-odyssey-850_15	3	24	no	no	DT
homer-odyssey-850_15	3	25	rest	rest	NN
homer-odyssey-850_15	3	26	all	all	DT
homer-odyssey-850_15	3	27	night	night	NN
homer-odyssey-850_15	3	28	for	for	IN
homer-odyssey-850_15	3	29	thinking	thinking	NN
homer-odyssey-850_15	3	30	of	of	IN
homer-odyssey-850_15	3	31	his	-PRON-	PRP$
homer-odyssey-850_15	3	32	unhappy	unhappy	JJ
homer-odyssey-850_15	3	33	father	father	NN
homer-odyssey-850_15	3	34	,	,	,
homer-odyssey-850_15	3	35	so	so	RB
homer-odyssey-850_15	3	36	Minerva	minerva	NNP
homer-odyssey-850_15	3	37	went	go	VBD
homer-odyssey-850_15	3	38	close	close	RB
homer-odyssey-850_15	3	39	up	up	RP
homer-odyssey-850_15	3	40	to	to	IN
homer-odyssey-850_15	3	41	him	-PRON-	PRP
homer-odyssey-850_15	3	42	and	and	CC
homer-odyssey-850_15	3	43	said	say	VBD
homer-odyssey-850_15	3	44	:	:	:
homer-odyssey-850_15	3	45	"	"	``
homer-odyssey-850_15	3	46	Telemachus	telemachus	NN
homer-odyssey-850_15	3	47	,	,	,
homer-odyssey-850_15	3	48	you	-PRON-	PRP
homer-odyssey-850_15	3	49	should	should	MD
homer-odyssey-850_15	3	50	not	not	RB
homer-odyssey-850_15	3	51	remain	remain	VB
homer-odyssey-850_15	3	52	so	so	RB
homer-odyssey-850_15	3	53	far	far	RB
homer-odyssey-850_15	3	54	away	away	RB
homer-odyssey-850_15	3	55	from	from	IN
homer-odyssey-850_15	3	56	home	home	NN
homer-odyssey-850_15	3	57	any	any	RB
homer-odyssey-850_15	3	58	longer	longer	RBR
homer-odyssey-850_15	3	59	,	,	,
homer-odyssey-850_15	3	60	nor	nor	CC
homer-odyssey-850_15	3	61	leave	leave	VB
homer-odyssey-850_15	3	62	your	-PRON-	PRP$
homer-odyssey-850_15	3	63	property	property	NN
homer-odyssey-850_15	3	64	with	with	IN
homer-odyssey-850_15	3	65	such	such	JJ
homer-odyssey-850_15	3	66	dangerous	dangerous	JJ
homer-odyssey-850_15	3	67	people	people	NNS
homer-odyssey-850_15	3	68	in	in	IN
homer-odyssey-850_15	3	69	your	-PRON-	PRP$
homer-odyssey-850_15	3	70	house	house	NN
homer-odyssey-850_15	3	71	;	;	:
homer-odyssey-850_15	3	72	they	-PRON-	PRP
homer-odyssey-850_15	3	73	will	will	MD
homer-odyssey-850_15	3	74	eat	eat	VB
homer-odyssey-850_15	3	75	up	up	RP
homer-odyssey-850_15	3	76	everything	everything	NN
homer-odyssey-850_15	3	77	you	-PRON-	PRP
homer-odyssey-850_15	3	78	have	have	VBP
homer-odyssey-850_15	3	79	among	among	IN
homer-odyssey-850_15	3	80	them	-PRON-	PRP
homer-odyssey-850_15	3	81	,	,	,
homer-odyssey-850_15	3	82	and	and	CC
homer-odyssey-850_15	3	83	you	-PRON-	PRP
homer-odyssey-850_15	3	84	will	will	MD
homer-odyssey-850_15	3	85	have	have	VB
homer-odyssey-850_15	3	86	been	be	VBN
homer-odyssey-850_15	3	87	on	on	IN
homer-odyssey-850_15	3	88	a	a	DT
homer-odyssey-850_15	3	89	fool	fool	NN
homer-odyssey-850_15	3	90	's	's	POS
homer-odyssey-850_15	3	91	errand	errand	NN
homer-odyssey-850_15	3	92	.	.	.
homer-odyssey-850_15	4	1	Ask	ask	VB
homer-odyssey-850_15	4	2	Menelaus	menelaus	NNP
homer-odyssey-850_15	4	3	to	to	TO
homer-odyssey-850_15	4	4	send	send	VB
homer-odyssey-850_15	4	5	you	-PRON-	PRP
homer-odyssey-850_15	4	6	home	home	RB
homer-odyssey-850_15	4	7	at	at	IN
homer-odyssey-850_15	4	8	once	once	RB
homer-odyssey-850_15	4	9	if	if	IN
homer-odyssey-850_15	4	10	you	-PRON-	PRP
homer-odyssey-850_15	4	11	wish	wish	VBP
homer-odyssey-850_15	4	12	to	to	TO
homer-odyssey-850_15	4	13	find	find	VB
homer-odyssey-850_15	4	14	your	-PRON-	PRP$
homer-odyssey-850_15	4	15	excellent	excellent	JJ
homer-odyssey-850_15	4	16	mother	mother	NN
homer-odyssey-850_15	4	17	still	still	RB
homer-odyssey-850_15	4	18	there	there	RB
homer-odyssey-850_15	4	19	when	when	WRB
homer-odyssey-850_15	4	20	you	-PRON-	PRP
homer-odyssey-850_15	4	21	get	get	VBP
homer-odyssey-850_15	4	22	back	back	RB
homer-odyssey-850_15	4	23	.	.	.
homer-odyssey-850_15	5	1	Her	-PRON-	PRP$
homer-odyssey-850_15	5	2	father	father	NN
homer-odyssey-850_15	5	3	and	and	CC
homer-odyssey-850_15	5	4	brothers	brother	NNS
homer-odyssey-850_15	5	5	are	be	VBP
homer-odyssey-850_15	5	6	already	already	RB
homer-odyssey-850_15	5	7	urging	urge	VBG
homer-odyssey-850_15	5	8	her	-PRON-	PRP
homer-odyssey-850_15	5	9	to	to	TO
homer-odyssey-850_15	5	10	marry	marry	VB
homer-odyssey-850_15	5	11	Eurymachus	eurymachus	NNP
homer-odyssey-850_15	5	12	,	,	,
homer-odyssey-850_15	5	13	who	who	WP
homer-odyssey-850_15	5	14	has	have	VBZ
homer-odyssey-850_15	5	15	given	give	VBN
homer-odyssey-850_15	5	16	her	-PRON-	PRP
homer-odyssey-850_15	5	17	more	more	JJR
homer-odyssey-850_15	5	18	than	than	IN
homer-odyssey-850_15	5	19	any	any	DT
homer-odyssey-850_15	5	20	of	of	IN
homer-odyssey-850_15	5	21	the	the	DT
homer-odyssey-850_15	5	22	others	other	NNS
homer-odyssey-850_15	5	23	,	,	,
homer-odyssey-850_15	5	24	and	and	CC
homer-odyssey-850_15	5	25	has	have	VBZ
homer-odyssey-850_15	5	26	been	be	VBN
homer-odyssey-850_15	5	27	greatly	greatly	RB
homer-odyssey-850_15	5	28	increasing	increase	VBG
homer-odyssey-850_15	5	29	his	-PRON-	PRP$
homer-odyssey-850_15	5	30	wedding	wedding	NN
homer-odyssey-850_15	5	31	presents	present	NNS
homer-odyssey-850_15	5	32	.	.	.
homer-odyssey-850_15	6	1	I	-PRON-	PRP
homer-odyssey-850_15	6	2	hope	hope	VBP
homer-odyssey-850_15	6	3	nothing	nothing	NN
homer-odyssey-850_15	6	4	valuable	valuable	JJ
homer-odyssey-850_15	6	5	may	may	MD
homer-odyssey-850_15	6	6	have	have	VB
homer-odyssey-850_15	6	7	been	be	VBN
homer-odyssey-850_15	6	8	taken	take	VBN
homer-odyssey-850_15	6	9	from	from	IN
homer-odyssey-850_15	6	10	the	the	DT
homer-odyssey-850_15	6	11	house	house	NN
homer-odyssey-850_15	6	12	in	in	IN
homer-odyssey-850_15	6	13	spite	spite	NN
homer-odyssey-850_15	6	14	of	of	IN
homer-odyssey-850_15	6	15	you	-PRON-	PRP
homer-odyssey-850_15	6	16	,	,	,
homer-odyssey-850_15	6	17	but	but	CC
homer-odyssey-850_15	6	18	you	-PRON-	PRP
homer-odyssey-850_15	6	19	know	know	VBP
homer-odyssey-850_15	6	20	what	what	WP
homer-odyssey-850_15	6	21	women	woman	NNS
homer-odyssey-850_15	6	22	are--	are--	IN
homer-odyssey-850_15	6	23	they	-PRON-	PRP
homer-odyssey-850_15	6	24	always	always	RB
homer-odyssey-850_15	6	25	want	want	VBP
homer-odyssey-850_15	6	26	to	to	TO
homer-odyssey-850_15	6	27	do	do	VB
homer-odyssey-850_15	6	28	the	the	DT
homer-odyssey-850_15	6	29	best	good	JJS
homer-odyssey-850_15	6	30	they	-PRON-	PRP
homer-odyssey-850_15	6	31	can	can	MD
homer-odyssey-850_15	6	32	for	for	IN
homer-odyssey-850_15	6	33	the	the	DT
homer-odyssey-850_15	6	34	man	man	NN
homer-odyssey-850_15	6	35	who	who	WP
homer-odyssey-850_15	6	36	marries	marry	VBZ
homer-odyssey-850_15	6	37	them	-PRON-	PRP
homer-odyssey-850_15	6	38	,	,	,
homer-odyssey-850_15	6	39	and	and	CC
homer-odyssey-850_15	6	40	never	never	RB
homer-odyssey-850_15	6	41	give	give	VB
homer-odyssey-850_15	6	42	another	another	DT
homer-odyssey-850_15	6	43	thought	thought	NN
homer-odyssey-850_15	6	44	to	to	IN
homer-odyssey-850_15	6	45	the	the	DT
homer-odyssey-850_15	6	46	children	child	NNS
homer-odyssey-850_15	6	47	of	of	IN
homer-odyssey-850_15	6	48	their	-PRON-	PRP$
homer-odyssey-850_15	6	49	first	first	JJ
homer-odyssey-850_15	6	50	husband	husband	NN
homer-odyssey-850_15	6	51	,	,	,
homer-odyssey-850_15	6	52	nor	nor	CC
homer-odyssey-850_15	6	53	to	to	IN
homer-odyssey-850_15	6	54	their	-PRON-	PRP$
homer-odyssey-850_15	6	55	father	father	NN
homer-odyssey-850_15	6	56	either	either	RB
homer-odyssey-850_15	6	57	when	when	WRB
homer-odyssey-850_15	6	58	he	-PRON-	PRP
homer-odyssey-850_15	6	59	is	be	VBZ
homer-odyssey-850_15	6	60	dead	dead	JJ
homer-odyssey-850_15	6	61	and	and	CC
homer-odyssey-850_15	6	62	done	do	VBN
homer-odyssey-850_15	6	63	with	with	IN
homer-odyssey-850_15	6	64	.	.	.
homer-odyssey-850_15	7	1	Go	go	VB
homer-odyssey-850_15	7	2	home	home	RB
homer-odyssey-850_15	7	3	,	,	,
homer-odyssey-850_15	7	4	therefore	therefore	RB
homer-odyssey-850_15	7	5	,	,	,
homer-odyssey-850_15	7	6	and	and	CC
homer-odyssey-850_15	7	7	put	put	VBD
homer-odyssey-850_15	7	8	everything	everything	NN
homer-odyssey-850_15	7	9	in	in	IN
homer-odyssey-850_15	7	10	charge	charge	NN
homer-odyssey-850_15	7	11	of	of	IN
homer-odyssey-850_15	7	12	the	the	DT
homer-odyssey-850_15	7	13	most	most	RBS
homer-odyssey-850_15	7	14	respectable	respectable	JJ
homer-odyssey-850_15	7	15	woman	woman	NN
homer-odyssey-850_15	7	16	servant	servant	NN
homer-odyssey-850_15	7	17	that	that	WDT
homer-odyssey-850_15	7	18	you	-PRON-	PRP
homer-odyssey-850_15	7	19	have	have	VBP
homer-odyssey-850_15	7	20	,	,	,
homer-odyssey-850_15	7	21	until	until	IN
homer-odyssey-850_15	7	22	it	-PRON-	PRP
homer-odyssey-850_15	7	23	shall	shall	MD
homer-odyssey-850_15	7	24	please	please	VB
homer-odyssey-850_15	7	25	heaven	heaven	NNP
homer-odyssey-850_15	7	26	to	to	TO
homer-odyssey-850_15	7	27	send	send	VB
homer-odyssey-850_15	7	28	you	-PRON-	PRP
homer-odyssey-850_15	7	29	a	a	DT
homer-odyssey-850_15	7	30	wife	wife	NN
homer-odyssey-850_15	7	31	of	of	IN
homer-odyssey-850_15	7	32	your	-PRON-	PRP$
homer-odyssey-850_15	7	33	own	own	JJ
homer-odyssey-850_15	7	34	.	.	.
homer-odyssey-850_15	8	1	Let	let	VB
homer-odyssey-850_15	8	2	me	-PRON-	PRP
homer-odyssey-850_15	8	3	tell	tell	VB
homer-odyssey-850_15	8	4	you	-PRON-	PRP
homer-odyssey-850_15	8	5	also	also	RB
homer-odyssey-850_15	8	6	of	of	IN
homer-odyssey-850_15	8	7	another	another	DT
homer-odyssey-850_15	8	8	matter	matter	NN
homer-odyssey-850_15	8	9	which	which	WDT
homer-odyssey-850_15	8	10	you	-PRON-	PRP
homer-odyssey-850_15	8	11	had	have	VBD
homer-odyssey-850_15	8	12	better	good	JJR
homer-odyssey-850_15	8	13	attend	attend	VB
homer-odyssey-850_15	8	14	to	to	IN
homer-odyssey-850_15	8	15	.	.	.
homer-odyssey-850_15	9	1	The	the	DT
homer-odyssey-850_15	9	2	chief	chief	JJ
homer-odyssey-850_15	9	3	men	man	NNS
homer-odyssey-850_15	9	4	among	among	IN
homer-odyssey-850_15	9	5	the	the	DT
homer-odyssey-850_15	9	6	suitors	suitor	NNS
homer-odyssey-850_15	9	7	are	be	VBP
homer-odyssey-850_15	9	8	lying	lie	VBG
homer-odyssey-850_15	9	9	in	in	IN
homer-odyssey-850_15	9	10	wait	wait	NN
homer-odyssey-850_15	9	11	for	for	IN
homer-odyssey-850_15	9	12	you	-PRON-	PRP
homer-odyssey-850_15	9	13	in	in	IN
homer-odyssey-850_15	9	14	the	the	DT
homer-odyssey-850_15	9	15	Strait	strait	NNP
homer-odyssey-850_15	9	16	{	{	-LRB-
homer-odyssey-850_15	9	17	128	128	CD
homer-odyssey-850_15	9	18	}	}	-RRB-
homer-odyssey-850_15	9	19	between	between	IN
homer-odyssey-850_15	9	20	Ithaca	ithaca	NNP
homer-odyssey-850_15	9	21	and	and	CC
homer-odyssey-850_15	9	22	Samos	samos	NNP
homer-odyssey-850_15	9	23	,	,	,
homer-odyssey-850_15	9	24	and	and	CC
homer-odyssey-850_15	9	25	they	-PRON-	PRP
homer-odyssey-850_15	9	26	mean	mean	VBP
homer-odyssey-850_15	9	27	to	to	TO
homer-odyssey-850_15	9	28	kill	kill	VB
homer-odyssey-850_15	9	29	you	-PRON-	PRP
homer-odyssey-850_15	9	30	before	before	IN
homer-odyssey-850_15	9	31	you	-PRON-	PRP
homer-odyssey-850_15	9	32	can	can	MD
homer-odyssey-850_15	9	33	reach	reach	VB
homer-odyssey-850_15	9	34	home	home	RB
homer-odyssey-850_15	9	35	.	.	.
homer-odyssey-850_15	10	1	I	-PRON-	PRP
homer-odyssey-850_15	10	2	do	do	VBP
homer-odyssey-850_15	10	3	not	not	RB
homer-odyssey-850_15	10	4	much	much	RB
homer-odyssey-850_15	10	5	think	think	VB
homer-odyssey-850_15	10	6	they	-PRON-	PRP
homer-odyssey-850_15	10	7	will	will	MD
homer-odyssey-850_15	10	8	succeed	succeed	VB
homer-odyssey-850_15	10	9	;	;	:
homer-odyssey-850_15	10	10	it	-PRON-	PRP
homer-odyssey-850_15	10	11	is	be	VBZ
homer-odyssey-850_15	10	12	more	more	RBR
homer-odyssey-850_15	10	13	likely	likely	JJ
homer-odyssey-850_15	10	14	that	that	IN
homer-odyssey-850_15	10	15	some	some	DT
homer-odyssey-850_15	10	16	of	of	IN
homer-odyssey-850_15	10	17	those	those	DT
homer-odyssey-850_15	10	18	who	who	WP
homer-odyssey-850_15	10	19	are	be	VBP
homer-odyssey-850_15	10	20	now	now	RB
homer-odyssey-850_15	10	21	eating	eat	VBG
homer-odyssey-850_15	10	22	up	up	RP
homer-odyssey-850_15	10	23	your	-PRON-	PRP$
homer-odyssey-850_15	10	24	property	property	NN
homer-odyssey-850_15	10	25	will	will	MD
homer-odyssey-850_15	10	26	find	find	VB
homer-odyssey-850_15	10	27	a	a	DT
homer-odyssey-850_15	10	28	grave	grave	NN
homer-odyssey-850_15	10	29	themselves	-PRON-	PRP
homer-odyssey-850_15	10	30	.	.	.
homer-odyssey-850_15	11	1	Sail	sail	VB
homer-odyssey-850_15	11	2	night	night	NN
homer-odyssey-850_15	11	3	and	and	CC
homer-odyssey-850_15	11	4	day	day	NN
homer-odyssey-850_15	11	5	,	,	,
homer-odyssey-850_15	11	6	and	and	CC
homer-odyssey-850_15	11	7	keep	keep	VB
homer-odyssey-850_15	11	8	your	-PRON-	PRP$
homer-odyssey-850_15	11	9	ship	ship	NN
homer-odyssey-850_15	11	10	well	well	RB
homer-odyssey-850_15	11	11	away	away	RB
homer-odyssey-850_15	11	12	from	from	IN
homer-odyssey-850_15	11	13	the	the	DT
homer-odyssey-850_15	11	14	islands	island	NNS
homer-odyssey-850_15	11	15	;	;	:
homer-odyssey-850_15	11	16	the	the	DT
homer-odyssey-850_15	11	17	god	god	NN
homer-odyssey-850_15	11	18	who	who	WP
homer-odyssey-850_15	11	19	watches	watch	VBZ
homer-odyssey-850_15	11	20	over	over	IN
homer-odyssey-850_15	11	21	you	-PRON-	PRP
homer-odyssey-850_15	11	22	and	and	CC
homer-odyssey-850_15	11	23	protects	protect	VBZ
homer-odyssey-850_15	11	24	you	-PRON-	PRP
homer-odyssey-850_15	11	25	will	will	MD
homer-odyssey-850_15	11	26	send	send	VB
homer-odyssey-850_15	11	27	you	-PRON-	PRP
homer-odyssey-850_15	11	28	a	a	DT
homer-odyssey-850_15	11	29	fair	fair	JJ
homer-odyssey-850_15	11	30	wind	wind	NN
homer-odyssey-850_15	11	31	.	.	.
homer-odyssey-850_15	12	1	As	as	RB
homer-odyssey-850_15	12	2	soon	soon	RB
homer-odyssey-850_15	12	3	as	as	IN
homer-odyssey-850_15	12	4	you	-PRON-	PRP
homer-odyssey-850_15	12	5	get	get	VBP
homer-odyssey-850_15	12	6	to	to	IN
homer-odyssey-850_15	12	7	Ithaca	ithaca	NNS
homer-odyssey-850_15	12	8	send	send	VB
homer-odyssey-850_15	12	9	your	-PRON-	PRP$
homer-odyssey-850_15	12	10	ship	ship	NN
homer-odyssey-850_15	12	11	and	and	CC
homer-odyssey-850_15	12	12	men	man	NNS
homer-odyssey-850_15	12	13	on	on	IN
homer-odyssey-850_15	12	14	to	to	IN
homer-odyssey-850_15	12	15	the	the	DT
homer-odyssey-850_15	12	16	town	town	NN
homer-odyssey-850_15	12	17	,	,	,
homer-odyssey-850_15	12	18	but	but	CC
homer-odyssey-850_15	12	19	yourself	-PRON-	PRP
homer-odyssey-850_15	12	20	go	go	VBP
homer-odyssey-850_15	12	21	straight	straight	RB
homer-odyssey-850_15	12	22	to	to	IN
homer-odyssey-850_15	12	23	the	the	DT
homer-odyssey-850_15	12	24	swineherd	swineherd	NN
homer-odyssey-850_15	12	25	who	who	WP
homer-odyssey-850_15	12	26	has	have	VBZ
homer-odyssey-850_15	12	27	charge	charge	NN
homer-odyssey-850_15	12	28	of	of	IN
homer-odyssey-850_15	12	29	your	-PRON-	PRP$
homer-odyssey-850_15	12	30	pigs	pig	NNS
homer-odyssey-850_15	12	31	;	;	:
homer-odyssey-850_15	12	32	he	-PRON-	PRP
homer-odyssey-850_15	12	33	is	be	VBZ
homer-odyssey-850_15	12	34	well	well	RB
homer-odyssey-850_15	12	35	disposed	disposed	JJ
homer-odyssey-850_15	12	36	towards	towards	IN
homer-odyssey-850_15	12	37	you	-PRON-	PRP
homer-odyssey-850_15	12	38	,	,	,
homer-odyssey-850_15	12	39	stay	stay	VB
homer-odyssey-850_15	12	40	with	with	IN
homer-odyssey-850_15	12	41	him	-PRON-	PRP
homer-odyssey-850_15	12	42	,	,	,
homer-odyssey-850_15	12	43	therefore	therefore	RB
homer-odyssey-850_15	12	44	,	,	,
homer-odyssey-850_15	12	45	for	for	IN
homer-odyssey-850_15	12	46	the	the	DT
homer-odyssey-850_15	12	47	night	night	NN
homer-odyssey-850_15	12	48	,	,	,
homer-odyssey-850_15	12	49	and	and	CC
homer-odyssey-850_15	12	50	then	then	RB
homer-odyssey-850_15	12	51	send	send	VB
homer-odyssey-850_15	12	52	him	-PRON-	PRP
homer-odyssey-850_15	12	53	to	to	IN
homer-odyssey-850_15	12	54	Penelope	penelope	NNP
homer-odyssey-850_15	12	55	to	to	TO
homer-odyssey-850_15	12	56	tell	tell	VB
homer-odyssey-850_15	12	57	her	-PRON-	PRP
homer-odyssey-850_15	12	58	that	that	IN
homer-odyssey-850_15	12	59	you	-PRON-	PRP
homer-odyssey-850_15	12	60	have	have	VBP
homer-odyssey-850_15	12	61	got	get	VBN
homer-odyssey-850_15	12	62	back	back	RB
homer-odyssey-850_15	12	63	safe	safe	JJ
homer-odyssey-850_15	12	64	from	from	IN
homer-odyssey-850_15	12	65	Pylos	pylos	NNP
homer-odyssey-850_15	12	66	.	.	.
homer-odyssey-850_15	12	67	"	"	''
homer-odyssey-850_15	13	1	Then	then	RB
homer-odyssey-850_15	13	2	she	-PRON-	PRP
homer-odyssey-850_15	13	3	went	go	VBD
homer-odyssey-850_15	13	4	back	back	RB
homer-odyssey-850_15	13	5	to	to	IN
homer-odyssey-850_15	13	6	Olympus	olympus	NNP
homer-odyssey-850_15	13	7	;	;	:
homer-odyssey-850_15	13	8	but	but	CC
homer-odyssey-850_15	13	9	Telemachus	telemachus	NNP
homer-odyssey-850_15	13	10	stirred	stir	VBD
homer-odyssey-850_15	13	11	Pisistratus	pisistratus	NNP
homer-odyssey-850_15	13	12	with	with	IN
homer-odyssey-850_15	13	13	his	-PRON-	PRP$
homer-odyssey-850_15	13	14	heel	heel	NN
homer-odyssey-850_15	13	15	to	to	TO
homer-odyssey-850_15	13	16	rouse	rouse	VB
homer-odyssey-850_15	13	17	him	-PRON-	PRP
homer-odyssey-850_15	13	18	,	,	,
homer-odyssey-850_15	13	19	and	and	CC
homer-odyssey-850_15	13	20	said	say	VBD
homer-odyssey-850_15	13	21	,	,	,
homer-odyssey-850_15	13	22	"	"	``
homer-odyssey-850_15	13	23	Wake	wake	VB
homer-odyssey-850_15	13	24	up	up	RP
homer-odyssey-850_15	13	25	Pisistratus	pisistratus	NNP
homer-odyssey-850_15	13	26	,	,	,
homer-odyssey-850_15	13	27	and	and	CC
homer-odyssey-850_15	13	28	yoke	yoke	VBP
homer-odyssey-850_15	13	29	the	the	DT
homer-odyssey-850_15	13	30	horses	horse	NNS
homer-odyssey-850_15	13	31	to	to	IN
homer-odyssey-850_15	13	32	the	the	DT
homer-odyssey-850_15	13	33	chariot	chariot	NN
homer-odyssey-850_15	13	34	,	,	,
homer-odyssey-850_15	13	35	for	for	IN
homer-odyssey-850_15	13	36	we	-PRON-	PRP
homer-odyssey-850_15	13	37	must	must	MD
homer-odyssey-850_15	13	38	set	set	VB
homer-odyssey-850_15	13	39	off	off	RP
homer-odyssey-850_15	13	40	home	home	RB
homer-odyssey-850_15	13	41	.	.	.
homer-odyssey-850_15	13	42	"	"	''
homer-odyssey-850_15	14	1	{	{	-LRB-
homer-odyssey-850_15	14	2	129	129	CD
homer-odyssey-850_15	14	3	}	}	-RRB-
homer-odyssey-850_15	14	4	But	but	CC
homer-odyssey-850_15	14	5	Pisistratus	pisistratus	NNP
homer-odyssey-850_15	14	6	said	say	VBD
homer-odyssey-850_15	14	7	,	,	,
homer-odyssey-850_15	14	8	"	"	``
homer-odyssey-850_15	14	9	No	no	RB
homer-odyssey-850_15	14	10	matter	matter	RB
homer-odyssey-850_15	14	11	what	what	WDT
homer-odyssey-850_15	14	12	hurry	hurry	NN
homer-odyssey-850_15	14	13	we	-PRON-	PRP
homer-odyssey-850_15	14	14	are	be	VBP
homer-odyssey-850_15	14	15	in	in	IN
homer-odyssey-850_15	14	16	we	-PRON-	PRP
homer-odyssey-850_15	14	17	can	can	MD
homer-odyssey-850_15	14	18	not	not	RB
homer-odyssey-850_15	14	19	drive	drive	VB
homer-odyssey-850_15	14	20	in	in	IN
homer-odyssey-850_15	14	21	the	the	DT
homer-odyssey-850_15	14	22	dark	dark	NN
homer-odyssey-850_15	14	23	.	.	.
homer-odyssey-850_15	15	1	It	-PRON-	PRP
homer-odyssey-850_15	15	2	will	will	MD
homer-odyssey-850_15	15	3	be	be	VB
homer-odyssey-850_15	15	4	morning	morning	NN
homer-odyssey-850_15	15	5	soon	soon	RB
homer-odyssey-850_15	15	6	;	;	:
homer-odyssey-850_15	15	7	wait	wait	VB
homer-odyssey-850_15	15	8	till	till	IN
homer-odyssey-850_15	15	9	Menelaus	menelaus	NNP
homer-odyssey-850_15	15	10	has	have	VBZ
homer-odyssey-850_15	15	11	brought	bring	VBN
homer-odyssey-850_15	15	12	his	-PRON-	PRP$
homer-odyssey-850_15	15	13	presents	present	NNS
homer-odyssey-850_15	15	14	and	and	CC
homer-odyssey-850_15	15	15	put	put	VBD
homer-odyssey-850_15	15	16	them	-PRON-	PRP
homer-odyssey-850_15	15	17	in	in	IN
homer-odyssey-850_15	15	18	the	the	DT
homer-odyssey-850_15	15	19	chariot	chariot	NN
homer-odyssey-850_15	15	20	for	for	IN
homer-odyssey-850_15	15	21	us	-PRON-	PRP
homer-odyssey-850_15	15	22	;	;	:
homer-odyssey-850_15	15	23	and	and	CC
homer-odyssey-850_15	15	24	let	let	VB
homer-odyssey-850_15	15	25	him	-PRON-	PRP
homer-odyssey-850_15	15	26	say	say	VB
homer-odyssey-850_15	15	27	good	good	JJ
homer-odyssey-850_15	15	28	bye	bye	UH
homer-odyssey-850_15	15	29	to	to	IN
homer-odyssey-850_15	15	30	us	-PRON-	PRP
homer-odyssey-850_15	15	31	in	in	IN
homer-odyssey-850_15	15	32	the	the	DT
homer-odyssey-850_15	15	33	usual	usual	JJ
homer-odyssey-850_15	15	34	way	way	NN
homer-odyssey-850_15	15	35	.	.	.
homer-odyssey-850_15	16	1	So	so	RB
homer-odyssey-850_15	16	2	long	long	RB
homer-odyssey-850_15	16	3	as	as	IN
homer-odyssey-850_15	16	4	he	-PRON-	PRP
homer-odyssey-850_15	16	5	lives	live	VBZ
homer-odyssey-850_15	16	6	a	a	DT
homer-odyssey-850_15	16	7	guest	guest	NN
homer-odyssey-850_15	16	8	should	should	MD
homer-odyssey-850_15	16	9	never	never	RB
homer-odyssey-850_15	16	10	forget	forget	VB
homer-odyssey-850_15	16	11	a	a	DT
homer-odyssey-850_15	16	12	host	host	NN
homer-odyssey-850_15	16	13	who	who	WP
homer-odyssey-850_15	16	14	has	have	VBZ
homer-odyssey-850_15	16	15	shown	show	VBN
homer-odyssey-850_15	16	16	him	-PRON-	PRP
homer-odyssey-850_15	16	17	kindness	kindness	NN
homer-odyssey-850_15	16	18	.	.	.
homer-odyssey-850_15	16	19	"	"	''
homer-odyssey-850_15	17	1	As	as	IN
homer-odyssey-850_15	17	2	he	-PRON-	PRP
homer-odyssey-850_15	17	3	spoke	speak	VBD
homer-odyssey-850_15	17	4	day	day	NN
homer-odyssey-850_15	17	5	began	begin	VBD
homer-odyssey-850_15	17	6	to	to	TO
homer-odyssey-850_15	17	7	break	break	VB
homer-odyssey-850_15	17	8	,	,	,
homer-odyssey-850_15	17	9	and	and	CC
homer-odyssey-850_15	17	10	Menelaus	menelaus	NNP
homer-odyssey-850_15	17	11	,	,	,
homer-odyssey-850_15	17	12	who	who	WP
homer-odyssey-850_15	17	13	had	have	VBD
homer-odyssey-850_15	17	14	already	already	RB
homer-odyssey-850_15	17	15	risen	rise	VBN
homer-odyssey-850_15	17	16	,	,	,
homer-odyssey-850_15	17	17	leaving	leave	VBG
homer-odyssey-850_15	17	18	Helen	helen	NNP
homer-odyssey-850_15	17	19	in	in	IN
homer-odyssey-850_15	17	20	bed	bed	NN
homer-odyssey-850_15	17	21	,	,	,
homer-odyssey-850_15	17	22	came	come	VBD
homer-odyssey-850_15	17	23	towards	towards	IN
homer-odyssey-850_15	17	24	them	-PRON-	PRP
homer-odyssey-850_15	17	25	.	.	.
homer-odyssey-850_15	18	1	When	when	WRB
homer-odyssey-850_15	18	2	Telemachus	telemachus	NNP
homer-odyssey-850_15	18	3	saw	see	VBD
homer-odyssey-850_15	18	4	him	-PRON-	PRP
homer-odyssey-850_15	18	5	he	-PRON-	PRP
homer-odyssey-850_15	18	6	put	put	VBD
homer-odyssey-850_15	18	7	on	on	IN
homer-odyssey-850_15	18	8	his	-PRON-	PRP$
homer-odyssey-850_15	18	9	shirt	shirt	NN
homer-odyssey-850_15	18	10	as	as	RB
homer-odyssey-850_15	18	11	fast	fast	RB
homer-odyssey-850_15	18	12	as	as	IN
homer-odyssey-850_15	18	13	he	-PRON-	PRP
homer-odyssey-850_15	18	14	could	could	MD
homer-odyssey-850_15	18	15	,	,	,
homer-odyssey-850_15	18	16	threw	throw	VBD
homer-odyssey-850_15	18	17	a	a	DT
homer-odyssey-850_15	18	18	great	great	JJ
homer-odyssey-850_15	18	19	cloak	cloak	NN
homer-odyssey-850_15	18	20	over	over	IN
homer-odyssey-850_15	18	21	his	-PRON-	PRP$
homer-odyssey-850_15	18	22	shoulders	shoulder	NNS
homer-odyssey-850_15	18	23	,	,	,
homer-odyssey-850_15	18	24	and	and	CC
homer-odyssey-850_15	18	25	went	go	VBD
homer-odyssey-850_15	18	26	out	out	RP
homer-odyssey-850_15	18	27	to	to	TO
homer-odyssey-850_15	18	28	meet	meet	VB
homer-odyssey-850_15	18	29	him	-PRON-	PRP
homer-odyssey-850_15	18	30	.	.	.
homer-odyssey-850_15	18	31	"	"	''
homer-odyssey-850_15	19	1	Menelaus	menelaus	NNP
homer-odyssey-850_15	19	2	,	,	,
homer-odyssey-850_15	19	3	"	"	''
homer-odyssey-850_15	19	4	said	say	VBD
homer-odyssey-850_15	19	5	he	-PRON-	PRP
homer-odyssey-850_15	19	6	,	,	,
homer-odyssey-850_15	19	7	"	"	``
homer-odyssey-850_15	19	8	let	let	VB
homer-odyssey-850_15	19	9	me	-PRON-	PRP
homer-odyssey-850_15	19	10	go	go	VB
homer-odyssey-850_15	19	11	back	back	RB
homer-odyssey-850_15	19	12	now	now	RB
homer-odyssey-850_15	19	13	to	to	IN
homer-odyssey-850_15	19	14	my	-PRON-	PRP$
homer-odyssey-850_15	19	15	own	own	JJ
homer-odyssey-850_15	19	16	country	country	NN
homer-odyssey-850_15	19	17	,	,	,
homer-odyssey-850_15	19	18	for	for	IN
homer-odyssey-850_15	19	19	I	-PRON-	PRP
homer-odyssey-850_15	19	20	want	want	VBP
homer-odyssey-850_15	19	21	to	to	TO
homer-odyssey-850_15	19	22	get	get	VB
homer-odyssey-850_15	19	23	home	home	RB
homer-odyssey-850_15	19	24	.	.	.
homer-odyssey-850_15	19	25	"	"	''
homer-odyssey-850_15	20	1	And	and	CC
homer-odyssey-850_15	20	2	Menelaus	menelaus	NNP
homer-odyssey-850_15	20	3	answered	answer	VBD
homer-odyssey-850_15	20	4	,	,	,
homer-odyssey-850_15	20	5	"	"	``
homer-odyssey-850_15	20	6	Telemachus	telemachus	VB
homer-odyssey-850_15	20	7	,	,	,
homer-odyssey-850_15	20	8	if	if	IN
homer-odyssey-850_15	20	9	you	-PRON-	PRP
homer-odyssey-850_15	20	10	insist	insist	VBP
homer-odyssey-850_15	20	11	on	on	IN
homer-odyssey-850_15	20	12	going	go	VBG
homer-odyssey-850_15	20	13	I	-PRON-	PRP
homer-odyssey-850_15	20	14	will	will	MD
homer-odyssey-850_15	20	15	not	not	RB
homer-odyssey-850_15	20	16	detain	detain	VB
homer-odyssey-850_15	20	17	you	-PRON-	PRP
homer-odyssey-850_15	20	18	.	.	.
homer-odyssey-850_15	21	1	I	-PRON-	PRP
homer-odyssey-850_15	21	2	do	do	VBP
homer-odyssey-850_15	21	3	not	not	RB
homer-odyssey-850_15	21	4	like	like	VB
homer-odyssey-850_15	21	5	to	to	TO
homer-odyssey-850_15	21	6	see	see	VB
homer-odyssey-850_15	21	7	a	a	DT
homer-odyssey-850_15	21	8	host	host	NN
homer-odyssey-850_15	21	9	either	either	CC
homer-odyssey-850_15	21	10	too	too	RB
homer-odyssey-850_15	21	11	fond	fond	JJ
homer-odyssey-850_15	21	12	of	of	IN
homer-odyssey-850_15	21	13	his	-PRON-	PRP$
homer-odyssey-850_15	21	14	guest	guest	NN
homer-odyssey-850_15	21	15	or	or	CC
homer-odyssey-850_15	21	16	too	too	RB
homer-odyssey-850_15	21	17	rude	rude	JJ
homer-odyssey-850_15	21	18	to	to	IN
homer-odyssey-850_15	21	19	him	-PRON-	PRP
homer-odyssey-850_15	21	20	.	.	.
homer-odyssey-850_15	22	1	Moderation	moderation	NN
homer-odyssey-850_15	22	2	is	be	VBZ
homer-odyssey-850_15	22	3	best	good	JJS
homer-odyssey-850_15	22	4	in	in	IN
homer-odyssey-850_15	22	5	all	all	DT
homer-odyssey-850_15	22	6	things	thing	NNS
homer-odyssey-850_15	22	7	,	,	,
homer-odyssey-850_15	22	8	and	and	CC
homer-odyssey-850_15	22	9	not	not	RB
homer-odyssey-850_15	22	10	letting	let	VBG
homer-odyssey-850_15	22	11	a	a	DT
homer-odyssey-850_15	22	12	man	man	NN
homer-odyssey-850_15	22	13	go	go	VB
homer-odyssey-850_15	22	14	when	when	WRB
homer-odyssey-850_15	22	15	he	-PRON-	PRP
homer-odyssey-850_15	22	16	wants	want	VBZ
homer-odyssey-850_15	22	17	to	to	TO
homer-odyssey-850_15	22	18	do	do	VB
homer-odyssey-850_15	22	19	so	so	RB
homer-odyssey-850_15	22	20	is	be	VBZ
homer-odyssey-850_15	22	21	as	as	RB
homer-odyssey-850_15	22	22	bad	bad	JJ
homer-odyssey-850_15	22	23	as	as	IN
homer-odyssey-850_15	22	24	telling	tell	VBG
homer-odyssey-850_15	22	25	him	-PRON-	PRP
homer-odyssey-850_15	22	26	to	to	TO
homer-odyssey-850_15	22	27	go	go	VB
homer-odyssey-850_15	22	28	if	if	IN
homer-odyssey-850_15	22	29	he	-PRON-	PRP
homer-odyssey-850_15	22	30	would	would	MD
homer-odyssey-850_15	22	31	like	like	VB
homer-odyssey-850_15	22	32	to	to	TO
homer-odyssey-850_15	22	33	stay	stay	VB
homer-odyssey-850_15	22	34	.	.	.
homer-odyssey-850_15	23	1	One	one	PRP
homer-odyssey-850_15	23	2	should	should	MD
homer-odyssey-850_15	23	3	treat	treat	VB
homer-odyssey-850_15	23	4	a	a	DT
homer-odyssey-850_15	23	5	guest	guest	NN
homer-odyssey-850_15	23	6	well	well	RB
homer-odyssey-850_15	23	7	as	as	RB
homer-odyssey-850_15	23	8	long	long	RB
homer-odyssey-850_15	23	9	as	as	IN
homer-odyssey-850_15	23	10	he	-PRON-	PRP
homer-odyssey-850_15	23	11	is	be	VBZ
homer-odyssey-850_15	23	12	in	in	IN
homer-odyssey-850_15	23	13	the	the	DT
homer-odyssey-850_15	23	14	house	house	NN
homer-odyssey-850_15	23	15	and	and	CC
homer-odyssey-850_15	23	16	speed	speed	VB
homer-odyssey-850_15	23	17	him	-PRON-	PRP
homer-odyssey-850_15	23	18	when	when	WRB
homer-odyssey-850_15	23	19	he	-PRON-	PRP
homer-odyssey-850_15	23	20	wants	want	VBZ
homer-odyssey-850_15	23	21	to	to	TO
homer-odyssey-850_15	23	22	leave	leave	VB
homer-odyssey-850_15	23	23	it	-PRON-	PRP
homer-odyssey-850_15	23	24	.	.	.
homer-odyssey-850_15	24	1	Wait	wait	VB
homer-odyssey-850_15	24	2	,	,	,
homer-odyssey-850_15	24	3	then	then	RB
homer-odyssey-850_15	24	4	,	,	,
homer-odyssey-850_15	24	5	till	till	IN
homer-odyssey-850_15	24	6	I	-PRON-	PRP
homer-odyssey-850_15	24	7	can	can	MD
homer-odyssey-850_15	24	8	get	get	VB
homer-odyssey-850_15	24	9	your	-PRON-	PRP$
homer-odyssey-850_15	24	10	beautiful	beautiful	JJ
homer-odyssey-850_15	24	11	presents	present	NNS
homer-odyssey-850_15	24	12	into	into	IN
homer-odyssey-850_15	24	13	your	-PRON-	PRP$
homer-odyssey-850_15	24	14	chariot	chariot	NN
homer-odyssey-850_15	24	15	,	,	,
homer-odyssey-850_15	24	16	and	and	CC
homer-odyssey-850_15	24	17	till	till	IN
homer-odyssey-850_15	24	18	you	-PRON-	PRP
homer-odyssey-850_15	24	19	have	have	VBP
homer-odyssey-850_15	24	20	yourself	-PRON-	PRP
homer-odyssey-850_15	24	21	seen	see	VBN
homer-odyssey-850_15	24	22	them	-PRON-	PRP
homer-odyssey-850_15	24	23	.	.	.
homer-odyssey-850_15	25	1	I	-PRON-	PRP
homer-odyssey-850_15	25	2	will	will	MD
homer-odyssey-850_15	25	3	tell	tell	VB
homer-odyssey-850_15	25	4	the	the	DT
homer-odyssey-850_15	25	5	women	woman	NNS
homer-odyssey-850_15	25	6	to	to	TO
homer-odyssey-850_15	25	7	prepare	prepare	VB
homer-odyssey-850_15	25	8	a	a	DT
homer-odyssey-850_15	25	9	sufficient	sufficient	JJ
homer-odyssey-850_15	25	10	dinner	dinner	NN
homer-odyssey-850_15	25	11	for	for	IN
homer-odyssey-850_15	25	12	you	-PRON-	PRP
homer-odyssey-850_15	25	13	of	of	IN
homer-odyssey-850_15	25	14	what	what	WP
homer-odyssey-850_15	25	15	there	there	EX
homer-odyssey-850_15	25	16	may	may	MD
homer-odyssey-850_15	25	17	be	be	VB
homer-odyssey-850_15	25	18	in	in	IN
homer-odyssey-850_15	25	19	the	the	DT
homer-odyssey-850_15	25	20	house	house	NN
homer-odyssey-850_15	25	21	;	;	:
homer-odyssey-850_15	25	22	it	-PRON-	PRP
homer-odyssey-850_15	25	23	will	will	MD
homer-odyssey-850_15	25	24	be	be	VB
homer-odyssey-850_15	25	25	at	at	IN
homer-odyssey-850_15	25	26	once	once	RB
homer-odyssey-850_15	25	27	more	more	RBR
homer-odyssey-850_15	25	28	proper	proper	JJ
homer-odyssey-850_15	25	29	and	and	CC
homer-odyssey-850_15	25	30	cheaper	cheap	JJR
homer-odyssey-850_15	25	31	for	for	IN
homer-odyssey-850_15	25	32	you	-PRON-	PRP
homer-odyssey-850_15	25	33	to	to	TO
homer-odyssey-850_15	25	34	get	get	VB
homer-odyssey-850_15	25	35	your	-PRON-	PRP$
homer-odyssey-850_15	25	36	dinner	dinner	NN
homer-odyssey-850_15	25	37	before	before	IN
homer-odyssey-850_15	25	38	setting	set	VBG
homer-odyssey-850_15	25	39	out	out	RP
homer-odyssey-850_15	25	40	on	on	IN
homer-odyssey-850_15	25	41	such	such	PDT
homer-odyssey-850_15	25	42	a	a	DT
homer-odyssey-850_15	25	43	long	long	JJ
homer-odyssey-850_15	25	44	journey	journey	NN
homer-odyssey-850_15	25	45	.	.	.
homer-odyssey-850_15	26	1	If	if	IN
homer-odyssey-850_15	26	2	,	,	,
homer-odyssey-850_15	26	3	moreover	moreover	RB
homer-odyssey-850_15	26	4	,	,	,
homer-odyssey-850_15	26	5	you	-PRON-	PRP
homer-odyssey-850_15	26	6	have	have	VBP
homer-odyssey-850_15	26	7	a	a	DT
homer-odyssey-850_15	26	8	fancy	fancy	NN
homer-odyssey-850_15	26	9	for	for	IN
homer-odyssey-850_15	26	10	making	make	VBG
homer-odyssey-850_15	26	11	a	a	DT
homer-odyssey-850_15	26	12	tour	tour	NN
homer-odyssey-850_15	26	13	in	in	IN
homer-odyssey-850_15	26	14	Hellas	hellas	NNP
homer-odyssey-850_15	26	15	or	or	CC
homer-odyssey-850_15	26	16	in	in	IN
homer-odyssey-850_15	26	17	the	the	DT
homer-odyssey-850_15	26	18	Peloponnese	peloponnese	NNPS
homer-odyssey-850_15	26	19	,	,	,
homer-odyssey-850_15	26	20	I	-PRON-	PRP
homer-odyssey-850_15	26	21	will	will	MD
homer-odyssey-850_15	26	22	yoke	yoke	VB
homer-odyssey-850_15	26	23	my	-PRON-	PRP$
homer-odyssey-850_15	26	24	horses	horse	NNS
homer-odyssey-850_15	26	25	,	,	,
homer-odyssey-850_15	26	26	and	and	CC
homer-odyssey-850_15	26	27	will	will	MD
homer-odyssey-850_15	26	28	conduct	conduct	VB
homer-odyssey-850_15	26	29	you	-PRON-	PRP
homer-odyssey-850_15	26	30	myself	-PRON-	PRP
homer-odyssey-850_15	26	31	through	through	IN
homer-odyssey-850_15	26	32	all	all	DT
homer-odyssey-850_15	26	33	our	-PRON-	PRP$
homer-odyssey-850_15	26	34	principal	principal	JJ
homer-odyssey-850_15	26	35	cities	city	NNS
homer-odyssey-850_15	26	36	.	.	.
homer-odyssey-850_15	27	1	No	no	DT
homer-odyssey-850_15	27	2	one	one	NN
homer-odyssey-850_15	27	3	will	will	MD
homer-odyssey-850_15	27	4	send	send	VB
homer-odyssey-850_15	27	5	us	-PRON-	PRP
homer-odyssey-850_15	27	6	away	away	RB
homer-odyssey-850_15	27	7	empty	empty	JJ
homer-odyssey-850_15	27	8	handed	handed	JJ
homer-odyssey-850_15	27	9	;	;	:
homer-odyssey-850_15	27	10	every	every	DT
homer-odyssey-850_15	27	11	one	one	NN
homer-odyssey-850_15	27	12	will	will	MD
homer-odyssey-850_15	27	13	give	give	VB
homer-odyssey-850_15	27	14	us	-PRON-	PRP
homer-odyssey-850_15	27	15	something--	something--	NN
homer-odyssey-850_15	27	16	a	a	DT
homer-odyssey-850_15	27	17	bronze	bronze	NN
homer-odyssey-850_15	27	18	tripod	tripod	NN
homer-odyssey-850_15	27	19	,	,	,
homer-odyssey-850_15	27	20	a	a	DT
homer-odyssey-850_15	27	21	couple	couple	NN
homer-odyssey-850_15	27	22	of	of	IN
homer-odyssey-850_15	27	23	mules	mule	NNS
homer-odyssey-850_15	27	24	,	,	,
homer-odyssey-850_15	27	25	or	or	CC
homer-odyssey-850_15	27	26	a	a	DT
homer-odyssey-850_15	27	27	gold	gold	JJ
homer-odyssey-850_15	27	28	cup	cup	NN
homer-odyssey-850_15	27	29	.	.	.
homer-odyssey-850_15	27	30	"	"	''
homer-odyssey-850_15	28	1	"	"	``
homer-odyssey-850_15	28	2	Menelaus	menelaus	NNP
homer-odyssey-850_15	28	3	,	,	,
homer-odyssey-850_15	28	4	"	"	''
homer-odyssey-850_15	28	5	replied	reply	VBD
homer-odyssey-850_15	28	6	Telemachus	telemachus	NN
homer-odyssey-850_15	28	7	,	,	,
homer-odyssey-850_15	28	8	"	"	''
homer-odyssey-850_15	28	9	I	-PRON-	PRP
homer-odyssey-850_15	28	10	want	want	VBP
homer-odyssey-850_15	28	11	to	to	TO
homer-odyssey-850_15	28	12	go	go	VB
homer-odyssey-850_15	28	13	home	home	RB
homer-odyssey-850_15	28	14	at	at	IN
homer-odyssey-850_15	28	15	once	once	RB
homer-odyssey-850_15	28	16	,	,	,
homer-odyssey-850_15	28	17	for	for	IN
homer-odyssey-850_15	28	18	when	when	WRB
homer-odyssey-850_15	28	19	I	-PRON-	PRP
homer-odyssey-850_15	28	20	came	come	VBD
homer-odyssey-850_15	28	21	away	away	RB
homer-odyssey-850_15	28	22	I	-PRON-	PRP
homer-odyssey-850_15	28	23	left	leave	VBD
homer-odyssey-850_15	28	24	my	-PRON-	PRP$
homer-odyssey-850_15	28	25	property	property	NN
homer-odyssey-850_15	28	26	without	without	IN
homer-odyssey-850_15	28	27	protection	protection	NN
homer-odyssey-850_15	28	28	,	,	,
homer-odyssey-850_15	28	29	and	and	CC
homer-odyssey-850_15	28	30	fear	fear	VBP
homer-odyssey-850_15	28	31	that	that	IN
homer-odyssey-850_15	28	32	while	while	IN
homer-odyssey-850_15	28	33	looking	look	VBG
homer-odyssey-850_15	28	34	for	for	IN
homer-odyssey-850_15	28	35	my	-PRON-	PRP$
homer-odyssey-850_15	28	36	father	father	NN
homer-odyssey-850_15	28	37	I	-PRON-	PRP
homer-odyssey-850_15	28	38	shall	shall	MD
homer-odyssey-850_15	28	39	come	come	VB
homer-odyssey-850_15	28	40	to	to	TO
homer-odyssey-850_15	28	41	ruin	ruin	VB
homer-odyssey-850_15	28	42	myself	-PRON-	PRP
homer-odyssey-850_15	28	43	,	,	,
homer-odyssey-850_15	28	44	or	or	CC
homer-odyssey-850_15	28	45	find	find	VB
homer-odyssey-850_15	28	46	that	that	IN
homer-odyssey-850_15	28	47	something	something	NN
homer-odyssey-850_15	28	48	valuable	valuable	JJ
homer-odyssey-850_15	28	49	has	have	VBZ
homer-odyssey-850_15	28	50	been	be	VBN
homer-odyssey-850_15	28	51	stolen	steal	VBN
homer-odyssey-850_15	28	52	during	during	IN
homer-odyssey-850_15	28	53	my	-PRON-	PRP$
homer-odyssey-850_15	28	54	absence	absence	NN
homer-odyssey-850_15	28	55	.	.	.
homer-odyssey-850_15	28	56	"	"	''
homer-odyssey-850_15	29	1	When	when	WRB
homer-odyssey-850_15	29	2	Menelaus	menelaus	NNP
homer-odyssey-850_15	29	3	heard	hear	VBD
homer-odyssey-850_15	29	4	this	this	DT
homer-odyssey-850_15	29	5	he	-PRON-	PRP
homer-odyssey-850_15	29	6	immediately	immediately	RB
homer-odyssey-850_15	29	7	told	tell	VBD
homer-odyssey-850_15	29	8	his	-PRON-	PRP$
homer-odyssey-850_15	29	9	wife	wife	NN
homer-odyssey-850_15	29	10	and	and	CC
homer-odyssey-850_15	29	11	servants	servant	NNS
homer-odyssey-850_15	29	12	to	to	TO
homer-odyssey-850_15	29	13	prepare	prepare	VB
homer-odyssey-850_15	29	14	a	a	DT
homer-odyssey-850_15	29	15	sufficient	sufficient	JJ
homer-odyssey-850_15	29	16	dinner	dinner	NN
homer-odyssey-850_15	29	17	from	from	IN
homer-odyssey-850_15	29	18	what	what	WP
homer-odyssey-850_15	29	19	there	there	EX
homer-odyssey-850_15	29	20	might	may	MD
homer-odyssey-850_15	29	21	be	be	VB
homer-odyssey-850_15	29	22	in	in	IN
homer-odyssey-850_15	29	23	the	the	DT
homer-odyssey-850_15	29	24	house	house	NN
homer-odyssey-850_15	29	25	.	.	.
homer-odyssey-850_15	30	1	At	at	IN
homer-odyssey-850_15	30	2	this	this	DT
homer-odyssey-850_15	30	3	moment	moment	NN
homer-odyssey-850_15	30	4	Eteoneus	eteoneus	NNP
homer-odyssey-850_15	30	5	joined	join	VBD
homer-odyssey-850_15	30	6	him	-PRON-	PRP
homer-odyssey-850_15	30	7	,	,	,
homer-odyssey-850_15	30	8	for	for	IN
homer-odyssey-850_15	30	9	he	-PRON-	PRP
homer-odyssey-850_15	30	10	lived	live	VBD
homer-odyssey-850_15	30	11	close	close	RB
homer-odyssey-850_15	30	12	by	by	RB
homer-odyssey-850_15	30	13	and	and	CC
homer-odyssey-850_15	30	14	had	have	VBD
homer-odyssey-850_15	30	15	just	just	RB
homer-odyssey-850_15	30	16	got	get	VBN
homer-odyssey-850_15	30	17	up	up	RP
homer-odyssey-850_15	30	18	;	;	:
homer-odyssey-850_15	30	19	so	so	RB
homer-odyssey-850_15	30	20	Menelaus	menelaus	NNP
homer-odyssey-850_15	30	21	told	tell	VBD
homer-odyssey-850_15	30	22	him	-PRON-	PRP
homer-odyssey-850_15	30	23	to	to	TO
homer-odyssey-850_15	30	24	light	light	VB
homer-odyssey-850_15	30	25	the	the	DT
homer-odyssey-850_15	30	26	fire	fire	NN
homer-odyssey-850_15	30	27	and	and	CC
homer-odyssey-850_15	30	28	cook	cook	VB
homer-odyssey-850_15	30	29	some	some	DT
homer-odyssey-850_15	30	30	meat	meat	NN
homer-odyssey-850_15	30	31	,	,	,
homer-odyssey-850_15	30	32	which	which	WDT
homer-odyssey-850_15	30	33	he	-PRON-	PRP
homer-odyssey-850_15	30	34	at	at	IN
homer-odyssey-850_15	30	35	once	once	RB
homer-odyssey-850_15	30	36	did	do	VBD
homer-odyssey-850_15	30	37	.	.	.
homer-odyssey-850_15	31	1	Then	then	RB
homer-odyssey-850_15	31	2	Menelaus	menelaus	NNP
homer-odyssey-850_15	31	3	went	go	VBD
homer-odyssey-850_15	31	4	down	down	RP
homer-odyssey-850_15	31	5	into	into	IN
homer-odyssey-850_15	31	6	his	-PRON-	PRP$
homer-odyssey-850_15	31	7	fragrant	fragrant	JJ
homer-odyssey-850_15	31	8	store	store	NN
homer-odyssey-850_15	31	9	room	room	NN
homer-odyssey-850_15	31	10	,	,	,
homer-odyssey-850_15	31	11	{	{	-LRB-
homer-odyssey-850_15	31	12	130	130	CD
homer-odyssey-850_15	31	13	}	}	-RRB-
homer-odyssey-850_15	31	14	not	not	RB
homer-odyssey-850_15	31	15	alone	alone	JJ
homer-odyssey-850_15	31	16	,	,	,
homer-odyssey-850_15	31	17	but	but	CC
homer-odyssey-850_15	31	18	Helen	helen	NNP
homer-odyssey-850_15	31	19	went	go	VBD
homer-odyssey-850_15	31	20	too	too	RB
homer-odyssey-850_15	31	21	,	,	,
homer-odyssey-850_15	31	22	with	with	IN
homer-odyssey-850_15	31	23	Megapenthes	megapenthes	NNP
homer-odyssey-850_15	31	24	.	.	.
homer-odyssey-850_15	32	1	When	when	WRB
homer-odyssey-850_15	32	2	he	-PRON-	PRP
homer-odyssey-850_15	32	3	reached	reach	VBD
homer-odyssey-850_15	32	4	the	the	DT
homer-odyssey-850_15	32	5	place	place	NN
homer-odyssey-850_15	32	6	where	where	WRB
homer-odyssey-850_15	32	7	the	the	DT
homer-odyssey-850_15	32	8	treasures	treasure	NNS
homer-odyssey-850_15	32	9	of	of	IN
homer-odyssey-850_15	32	10	his	-PRON-	PRP$
homer-odyssey-850_15	32	11	house	house	NN
homer-odyssey-850_15	32	12	were	be	VBD
homer-odyssey-850_15	32	13	kept	keep	VBN
homer-odyssey-850_15	32	14	,	,	,
homer-odyssey-850_15	32	15	he	-PRON-	PRP
homer-odyssey-850_15	32	16	selected	select	VBD
homer-odyssey-850_15	32	17	a	a	DT
homer-odyssey-850_15	32	18	double	double	JJ
homer-odyssey-850_15	32	19	cup	cup	NN
homer-odyssey-850_15	32	20	,	,	,
homer-odyssey-850_15	32	21	and	and	CC
homer-odyssey-850_15	32	22	told	tell	VBD
homer-odyssey-850_15	32	23	his	-PRON-	PRP$
homer-odyssey-850_15	32	24	son	son	NN
homer-odyssey-850_15	32	25	Megapenthes	megapenthes	NNP
homer-odyssey-850_15	32	26	to	to	TO
homer-odyssey-850_15	32	27	bring	bring	VB
homer-odyssey-850_15	32	28	also	also	RB
homer-odyssey-850_15	32	29	a	a	DT
homer-odyssey-850_15	32	30	silver	silver	NN
homer-odyssey-850_15	32	31	mixing	mix	VBG
homer-odyssey-850_15	32	32	bowl	bowl	NN
homer-odyssey-850_15	32	33	.	.	.
homer-odyssey-850_15	33	1	Meanwhile	meanwhile	RB
homer-odyssey-850_15	33	2	Helen	helen	NNP
homer-odyssey-850_15	33	3	went	go	VBD
homer-odyssey-850_15	33	4	to	to	IN
homer-odyssey-850_15	33	5	the	the	DT
homer-odyssey-850_15	33	6	chest	chest	NN
homer-odyssey-850_15	33	7	where	where	WRB
homer-odyssey-850_15	33	8	she	-PRON-	PRP
homer-odyssey-850_15	33	9	kept	keep	VBD
homer-odyssey-850_15	33	10	the	the	DT
homer-odyssey-850_15	33	11	lovely	lovely	JJ
homer-odyssey-850_15	33	12	dresses	dress	NNS
homer-odyssey-850_15	33	13	which	which	WDT
homer-odyssey-850_15	33	14	she	-PRON-	PRP
homer-odyssey-850_15	33	15	had	have	VBD
homer-odyssey-850_15	33	16	made	make	VBN
homer-odyssey-850_15	33	17	with	with	IN
homer-odyssey-850_15	33	18	her	-PRON-	PRP$
homer-odyssey-850_15	33	19	own	own	JJ
homer-odyssey-850_15	33	20	hands	hand	NNS
homer-odyssey-850_15	33	21	,	,	,
homer-odyssey-850_15	33	22	and	and	CC
homer-odyssey-850_15	33	23	took	take	VBD
homer-odyssey-850_15	33	24	out	out	RP
homer-odyssey-850_15	33	25	one	one	CD
homer-odyssey-850_15	33	26	that	that	WDT
homer-odyssey-850_15	33	27	was	be	VBD
homer-odyssey-850_15	33	28	largest	large	JJS
homer-odyssey-850_15	33	29	and	and	CC
homer-odyssey-850_15	33	30	most	most	RBS
homer-odyssey-850_15	33	31	beautifully	beautifully	RB
homer-odyssey-850_15	33	32	enriched	enrich	VBN
homer-odyssey-850_15	33	33	with	with	IN
homer-odyssey-850_15	33	34	embroidery	embroidery	NN
homer-odyssey-850_15	33	35	;	;	:
homer-odyssey-850_15	33	36	it	-PRON-	PRP
homer-odyssey-850_15	33	37	glittered	glitter	VBD
homer-odyssey-850_15	33	38	like	like	IN
homer-odyssey-850_15	33	39	a	a	DT
homer-odyssey-850_15	33	40	star	star	NN
homer-odyssey-850_15	33	41	,	,	,
homer-odyssey-850_15	33	42	and	and	CC
homer-odyssey-850_15	33	43	lay	lie	VBD
homer-odyssey-850_15	33	44	at	at	IN
homer-odyssey-850_15	33	45	the	the	DT
homer-odyssey-850_15	33	46	very	very	JJ
homer-odyssey-850_15	33	47	bottom	bottom	NN
homer-odyssey-850_15	33	48	of	of	IN
homer-odyssey-850_15	33	49	the	the	DT
homer-odyssey-850_15	33	50	chest	chest	NN
homer-odyssey-850_15	33	51	.	.	.
homer-odyssey-850_15	34	1	{	{	-LRB-
homer-odyssey-850_15	34	2	131	131	CD
homer-odyssey-850_15	34	3	}	}	-RRB-
homer-odyssey-850_15	34	4	Then	then	RB
homer-odyssey-850_15	34	5	they	-PRON-	PRP
homer-odyssey-850_15	34	6	all	all	DT
homer-odyssey-850_15	34	7	came	come	VBD
homer-odyssey-850_15	34	8	back	back	RB
homer-odyssey-850_15	34	9	through	through	IN
homer-odyssey-850_15	34	10	the	the	DT
homer-odyssey-850_15	34	11	house	house	NN
homer-odyssey-850_15	34	12	again	again	RB
homer-odyssey-850_15	34	13	till	till	IN
homer-odyssey-850_15	34	14	they	-PRON-	PRP
homer-odyssey-850_15	34	15	got	get	VBD
homer-odyssey-850_15	34	16	to	to	TO
homer-odyssey-850_15	34	17	Telemachus	telemachus	VB
homer-odyssey-850_15	34	18	,	,	,
homer-odyssey-850_15	34	19	and	and	CC
homer-odyssey-850_15	34	20	Menelaus	menelaus	NNP
homer-odyssey-850_15	34	21	said	say	VBD
homer-odyssey-850_15	34	22	,	,	,
homer-odyssey-850_15	34	23	"	"	``
homer-odyssey-850_15	34	24	Telemachus	telemachus	NN
homer-odyssey-850_15	34	25	,	,	,
homer-odyssey-850_15	34	26	may	may	MD
homer-odyssey-850_15	34	27	Jove	jove	VB
homer-odyssey-850_15	34	28	,	,	,
homer-odyssey-850_15	34	29	the	the	DT
homer-odyssey-850_15	34	30	mighty	mighty	JJ
homer-odyssey-850_15	34	31	husband	husband	NN
homer-odyssey-850_15	34	32	of	of	IN
homer-odyssey-850_15	34	33	Juno	juno	NNP
homer-odyssey-850_15	34	34	,	,	,
homer-odyssey-850_15	34	35	bring	bring	VB
homer-odyssey-850_15	34	36	you	-PRON-	PRP
homer-odyssey-850_15	34	37	safely	safely	RB
homer-odyssey-850_15	34	38	home	home	RB
homer-odyssey-850_15	34	39	according	accord	VBG
homer-odyssey-850_15	34	40	to	to	IN
homer-odyssey-850_15	34	41	your	-PRON-	PRP$
homer-odyssey-850_15	34	42	desire	desire	NN
homer-odyssey-850_15	34	43	.	.	.
homer-odyssey-850_15	35	1	I	-PRON-	PRP
homer-odyssey-850_15	35	2	will	will	MD
homer-odyssey-850_15	35	3	now	now	RB
homer-odyssey-850_15	35	4	present	present	VB
homer-odyssey-850_15	35	5	you	-PRON-	PRP
homer-odyssey-850_15	35	6	with	with	IN
homer-odyssey-850_15	35	7	the	the	DT
homer-odyssey-850_15	35	8	finest	fine	JJS
homer-odyssey-850_15	35	9	and	and	CC
homer-odyssey-850_15	35	10	most	most	RBS
homer-odyssey-850_15	35	11	precious	precious	JJ
homer-odyssey-850_15	35	12	piece	piece	NN
homer-odyssey-850_15	35	13	of	of	IN
homer-odyssey-850_15	35	14	plate	plate	NN
homer-odyssey-850_15	35	15	in	in	IN
homer-odyssey-850_15	35	16	all	all	DT
homer-odyssey-850_15	35	17	my	-PRON-	PRP$
homer-odyssey-850_15	35	18	house	house	NN
homer-odyssey-850_15	35	19	.	.	.
homer-odyssey-850_15	36	1	It	-PRON-	PRP
homer-odyssey-850_15	36	2	is	be	VBZ
homer-odyssey-850_15	36	3	a	a	DT
homer-odyssey-850_15	36	4	mixing	mix	VBG
homer-odyssey-850_15	36	5	bowl	bowl	NN
homer-odyssey-850_15	36	6	of	of	IN
homer-odyssey-850_15	36	7	pure	pure	JJ
homer-odyssey-850_15	36	8	silver	silver	NN
homer-odyssey-850_15	36	9	,	,	,
homer-odyssey-850_15	36	10	except	except	IN
homer-odyssey-850_15	36	11	the	the	DT
homer-odyssey-850_15	36	12	rim	rim	NN
homer-odyssey-850_15	36	13	,	,	,
homer-odyssey-850_15	36	14	which	which	WDT
homer-odyssey-850_15	36	15	is	be	VBZ
homer-odyssey-850_15	36	16	inlaid	inlaid	JJ
homer-odyssey-850_15	36	17	with	with	IN
homer-odyssey-850_15	36	18	gold	gold	NN
homer-odyssey-850_15	36	19	,	,	,
homer-odyssey-850_15	36	20	and	and	CC
homer-odyssey-850_15	36	21	it	-PRON-	PRP
homer-odyssey-850_15	36	22	is	be	VBZ
homer-odyssey-850_15	36	23	the	the	DT
homer-odyssey-850_15	36	24	work	work	NN
homer-odyssey-850_15	36	25	of	of	IN
homer-odyssey-850_15	36	26	Vulcan	vulcan	NNP
homer-odyssey-850_15	36	27	.	.	.
homer-odyssey-850_15	37	1	Phaedimus	phaedimus	NNP
homer-odyssey-850_15	37	2	king	king	NN
homer-odyssey-850_15	37	3	of	of	IN
homer-odyssey-850_15	37	4	the	the	DT
homer-odyssey-850_15	37	5	Sidonians	sidonians	NNPS
homer-odyssey-850_15	37	6	made	make	VBD
homer-odyssey-850_15	37	7	me	-PRON-	PRP
homer-odyssey-850_15	37	8	a	a	DT
homer-odyssey-850_15	37	9	present	present	NN
homer-odyssey-850_15	37	10	of	of	IN
homer-odyssey-850_15	37	11	it	-PRON-	PRP
homer-odyssey-850_15	37	12	in	in	IN
homer-odyssey-850_15	37	13	the	the	DT
homer-odyssey-850_15	37	14	course	course	NN
homer-odyssey-850_15	37	15	of	of	IN
homer-odyssey-850_15	37	16	a	a	DT
homer-odyssey-850_15	37	17	visit	visit	NN
homer-odyssey-850_15	37	18	that	that	WDT
homer-odyssey-850_15	37	19	I	-PRON-	PRP
homer-odyssey-850_15	37	20	paid	pay	VBD
homer-odyssey-850_15	37	21	him	-PRON-	PRP
homer-odyssey-850_15	37	22	while	while	IN
homer-odyssey-850_15	37	23	I	-PRON-	PRP
homer-odyssey-850_15	37	24	was	be	VBD
homer-odyssey-850_15	37	25	on	on	IN
homer-odyssey-850_15	37	26	my	-PRON-	PRP$
homer-odyssey-850_15	37	27	return	return	NN
homer-odyssey-850_15	37	28	home	home	RB
homer-odyssey-850_15	37	29	.	.	.
homer-odyssey-850_15	38	1	I	-PRON-	PRP
homer-odyssey-850_15	38	2	should	should	MD
homer-odyssey-850_15	38	3	like	like	VB
homer-odyssey-850_15	38	4	to	to	TO
homer-odyssey-850_15	38	5	give	give	VB
homer-odyssey-850_15	38	6	it	-PRON-	PRP
homer-odyssey-850_15	38	7	to	to	IN
homer-odyssey-850_15	38	8	you	-PRON-	PRP
homer-odyssey-850_15	38	9	.	.	.
homer-odyssey-850_15	38	10	"	"	''
homer-odyssey-850_15	39	1	With	with	IN
homer-odyssey-850_15	39	2	these	these	DT
homer-odyssey-850_15	39	3	words	word	NNS
homer-odyssey-850_15	39	4	he	-PRON-	PRP
homer-odyssey-850_15	39	5	placed	place	VBD
homer-odyssey-850_15	39	6	the	the	DT
homer-odyssey-850_15	39	7	double	double	JJ
homer-odyssey-850_15	39	8	cup	cup	NN
homer-odyssey-850_15	39	9	in	in	IN
homer-odyssey-850_15	39	10	the	the	DT
homer-odyssey-850_15	39	11	hands	hand	NNS
homer-odyssey-850_15	39	12	of	of	IN
homer-odyssey-850_15	39	13	Telemachus	telemachus	NNP
homer-odyssey-850_15	39	14	,	,	,
homer-odyssey-850_15	39	15	while	while	IN
homer-odyssey-850_15	39	16	Megapenthes	megapenthes	NNP
homer-odyssey-850_15	39	17	brought	bring	VBD
homer-odyssey-850_15	39	18	the	the	DT
homer-odyssey-850_15	39	19	beautiful	beautiful	JJ
homer-odyssey-850_15	39	20	mixing	mix	VBG
homer-odyssey-850_15	39	21	bowl	bowl	NN
homer-odyssey-850_15	39	22	and	and	CC
homer-odyssey-850_15	39	23	set	set	VBD
homer-odyssey-850_15	39	24	it	-PRON-	PRP
homer-odyssey-850_15	39	25	before	before	IN
homer-odyssey-850_15	39	26	him	-PRON-	PRP
homer-odyssey-850_15	39	27	.	.	.
homer-odyssey-850_15	40	1	Hard	hard	JJ
homer-odyssey-850_15	40	2	by	by	IN
homer-odyssey-850_15	40	3	stood	stand	VBD
homer-odyssey-850_15	40	4	lovely	lovely	JJ
homer-odyssey-850_15	40	5	Helen	helen	NNP
homer-odyssey-850_15	40	6	with	with	IN
homer-odyssey-850_15	40	7	the	the	DT
homer-odyssey-850_15	40	8	robe	robe	NN
homer-odyssey-850_15	40	9	ready	ready	JJ
homer-odyssey-850_15	40	10	in	in	IN
homer-odyssey-850_15	40	11	her	-PRON-	PRP$
homer-odyssey-850_15	40	12	hand	hand	NN
homer-odyssey-850_15	40	13	.	.	.
homer-odyssey-850_15	41	1	"	"	``
homer-odyssey-850_15	41	2	I	-PRON-	PRP
homer-odyssey-850_15	41	3	too	too	RB
homer-odyssey-850_15	41	4	,	,	,
homer-odyssey-850_15	41	5	my	-PRON-	PRP$
homer-odyssey-850_15	41	6	son	son	NN
homer-odyssey-850_15	41	7	,	,	,
homer-odyssey-850_15	41	8	"	"	''
homer-odyssey-850_15	41	9	said	say	VBD
homer-odyssey-850_15	41	10	she	-PRON-	PRP
homer-odyssey-850_15	41	11	,	,	,
homer-odyssey-850_15	41	12	"	"	``
homer-odyssey-850_15	41	13	have	have	VBP
homer-odyssey-850_15	41	14	something	something	NN
homer-odyssey-850_15	41	15	for	for	IN
homer-odyssey-850_15	41	16	you	-PRON-	PRP
homer-odyssey-850_15	41	17	as	as	IN
homer-odyssey-850_15	41	18	a	a	DT
homer-odyssey-850_15	41	19	keepsake	keepsake	NN
homer-odyssey-850_15	41	20	from	from	IN
homer-odyssey-850_15	41	21	the	the	DT
homer-odyssey-850_15	41	22	hand	hand	NN
homer-odyssey-850_15	41	23	of	of	IN
homer-odyssey-850_15	41	24	Helen	helen	NNP
homer-odyssey-850_15	41	25	;	;	:
homer-odyssey-850_15	41	26	it	-PRON-	PRP
homer-odyssey-850_15	41	27	is	be	VBZ
homer-odyssey-850_15	41	28	for	for	IN
homer-odyssey-850_15	41	29	your	-PRON-	PRP$
homer-odyssey-850_15	41	30	bride	bride	NN
homer-odyssey-850_15	41	31	to	to	TO
homer-odyssey-850_15	41	32	wear	wear	VB
homer-odyssey-850_15	41	33	upon	upon	IN
homer-odyssey-850_15	41	34	her	-PRON-	PRP$
homer-odyssey-850_15	41	35	wedding	wedding	NN
homer-odyssey-850_15	41	36	day	day	NN
homer-odyssey-850_15	41	37	.	.	.
homer-odyssey-850_15	42	1	Till	till	IN
homer-odyssey-850_15	42	2	then	then	RB
homer-odyssey-850_15	42	3	,	,	,
homer-odyssey-850_15	42	4	get	get	VB
homer-odyssey-850_15	42	5	your	-PRON-	PRP$
homer-odyssey-850_15	42	6	dear	dear	JJ
homer-odyssey-850_15	42	7	mother	mother	NN
homer-odyssey-850_15	42	8	to	to	TO
homer-odyssey-850_15	42	9	keep	keep	VB
homer-odyssey-850_15	42	10	it	-PRON-	PRP
homer-odyssey-850_15	42	11	for	for	IN
homer-odyssey-850_15	42	12	you	-PRON-	PRP
homer-odyssey-850_15	42	13	;	;	:
homer-odyssey-850_15	42	14	thus	thus	RB
homer-odyssey-850_15	42	15	may	may	MD
homer-odyssey-850_15	42	16	you	-PRON-	PRP
homer-odyssey-850_15	42	17	go	go	VB
homer-odyssey-850_15	42	18	back	back	RB
homer-odyssey-850_15	42	19	rejoicing	rejoice	VBG
homer-odyssey-850_15	42	20	to	to	IN
homer-odyssey-850_15	42	21	your	-PRON-	PRP$
homer-odyssey-850_15	42	22	own	own	JJ
homer-odyssey-850_15	42	23	country	country	NN
homer-odyssey-850_15	42	24	and	and	CC
homer-odyssey-850_15	42	25	to	to	IN
homer-odyssey-850_15	42	26	your	-PRON-	PRP$
homer-odyssey-850_15	42	27	home	home	NN
homer-odyssey-850_15	42	28	.	.	.
homer-odyssey-850_15	42	29	"	"	''
homer-odyssey-850_15	43	1	So	so	RB
homer-odyssey-850_15	43	2	saying	say	VBG
homer-odyssey-850_15	43	3	she	-PRON-	PRP
homer-odyssey-850_15	43	4	gave	give	VBD
homer-odyssey-850_15	43	5	the	the	DT
homer-odyssey-850_15	43	6	robe	robe	NN
homer-odyssey-850_15	43	7	over	over	RP
homer-odyssey-850_15	43	8	to	to	IN
homer-odyssey-850_15	43	9	him	-PRON-	PRP
homer-odyssey-850_15	43	10	and	and	CC
homer-odyssey-850_15	43	11	he	-PRON-	PRP
homer-odyssey-850_15	43	12	received	receive	VBD
homer-odyssey-850_15	43	13	it	-PRON-	PRP
homer-odyssey-850_15	43	14	gladly	gladly	RB
homer-odyssey-850_15	43	15	.	.	.
homer-odyssey-850_15	44	1	Then	then	RB
homer-odyssey-850_15	44	2	Pisistratus	pisistratus	NNP
homer-odyssey-850_15	44	3	put	put	VBD
homer-odyssey-850_15	44	4	the	the	DT
homer-odyssey-850_15	44	5	presents	present	NNS
homer-odyssey-850_15	44	6	into	into	IN
homer-odyssey-850_15	44	7	the	the	DT
homer-odyssey-850_15	44	8	chariot	chariot	NN
homer-odyssey-850_15	44	9	,	,	,
homer-odyssey-850_15	44	10	and	and	CC
homer-odyssey-850_15	44	11	admired	admire	VBD
homer-odyssey-850_15	44	12	them	-PRON-	PRP
homer-odyssey-850_15	44	13	all	all	DT
homer-odyssey-850_15	44	14	as	as	IN
homer-odyssey-850_15	44	15	he	-PRON-	PRP
homer-odyssey-850_15	44	16	did	do	VBD
homer-odyssey-850_15	44	17	so	so	RB
homer-odyssey-850_15	44	18	.	.	.
homer-odyssey-850_15	45	1	Presently	presently	RB
homer-odyssey-850_15	45	2	Menelaus	menelaus	NNP
homer-odyssey-850_15	45	3	took	take	VBD
homer-odyssey-850_15	45	4	Telemachus	telemachus	NNP
homer-odyssey-850_15	45	5	and	and	CC
homer-odyssey-850_15	45	6	Pisistratus	pisistratus	NNP
homer-odyssey-850_15	45	7	into	into	IN
homer-odyssey-850_15	45	8	the	the	DT
homer-odyssey-850_15	45	9	house	house	NN
homer-odyssey-850_15	45	10	,	,	,
homer-odyssey-850_15	45	11	and	and	CC
homer-odyssey-850_15	45	12	they	-PRON-	PRP
homer-odyssey-850_15	45	13	both	both	DT
homer-odyssey-850_15	45	14	of	of	IN
homer-odyssey-850_15	45	15	them	-PRON-	PRP
homer-odyssey-850_15	45	16	sat	sit	VBD
homer-odyssey-850_15	45	17	down	down	RP
homer-odyssey-850_15	45	18	to	to	IN
homer-odyssey-850_15	45	19	table	table	NN
homer-odyssey-850_15	45	20	.	.	.
homer-odyssey-850_15	46	1	A	a	DT
homer-odyssey-850_15	46	2	maid	maid	JJ
homer-odyssey-850_15	46	3	servant	servant	NN
homer-odyssey-850_15	46	4	brought	bring	VBD
homer-odyssey-850_15	46	5	them	-PRON-	PRP
homer-odyssey-850_15	46	6	water	water	NN
homer-odyssey-850_15	46	7	in	in	IN
homer-odyssey-850_15	46	8	a	a	DT
homer-odyssey-850_15	46	9	beautiful	beautiful	JJ
homer-odyssey-850_15	46	10	golden	golden	JJ
homer-odyssey-850_15	46	11	ewer	ewer	NN
homer-odyssey-850_15	46	12	,	,	,
homer-odyssey-850_15	46	13	and	and	CC
homer-odyssey-850_15	46	14	poured	pour	VBD
homer-odyssey-850_15	46	15	it	-PRON-	PRP
homer-odyssey-850_15	46	16	into	into	IN
homer-odyssey-850_15	46	17	a	a	DT
homer-odyssey-850_15	46	18	silver	silver	JJ
homer-odyssey-850_15	46	19	basin	basin	NN
homer-odyssey-850_15	46	20	for	for	IN
homer-odyssey-850_15	46	21	them	-PRON-	PRP
homer-odyssey-850_15	46	22	to	to	TO
homer-odyssey-850_15	46	23	wash	wash	VB
homer-odyssey-850_15	46	24	their	-PRON-	PRP$
homer-odyssey-850_15	46	25	hands	hand	NNS
homer-odyssey-850_15	46	26	,	,	,
homer-odyssey-850_15	46	27	and	and	CC
homer-odyssey-850_15	46	28	she	-PRON-	PRP
homer-odyssey-850_15	46	29	drew	draw	VBD
homer-odyssey-850_15	46	30	a	a	DT
homer-odyssey-850_15	46	31	clean	clean	JJ
homer-odyssey-850_15	46	32	table	table	NN
homer-odyssey-850_15	46	33	beside	beside	IN
homer-odyssey-850_15	46	34	them	-PRON-	PRP
homer-odyssey-850_15	46	35	;	;	:
homer-odyssey-850_15	46	36	an	an	DT
homer-odyssey-850_15	46	37	upper	upper	JJ
homer-odyssey-850_15	46	38	servant	servant	NN
homer-odyssey-850_15	46	39	brought	bring	VBD
homer-odyssey-850_15	46	40	them	-PRON-	PRP
homer-odyssey-850_15	46	41	bread	bread	NN
homer-odyssey-850_15	46	42	and	and	CC
homer-odyssey-850_15	46	43	offered	offer	VBD
homer-odyssey-850_15	46	44	them	-PRON-	PRP
homer-odyssey-850_15	46	45	many	many	JJ
homer-odyssey-850_15	46	46	good	good	JJ
homer-odyssey-850_15	46	47	things	thing	NNS
homer-odyssey-850_15	46	48	of	of	IN
homer-odyssey-850_15	46	49	what	what	WP
homer-odyssey-850_15	46	50	there	there	EX
homer-odyssey-850_15	46	51	was	be	VBD
homer-odyssey-850_15	46	52	in	in	IN
homer-odyssey-850_15	46	53	the	the	DT
homer-odyssey-850_15	46	54	house	house	NN
homer-odyssey-850_15	46	55	.	.	.
homer-odyssey-850_15	47	1	Eteoneus	eteoneus	NNP
homer-odyssey-850_15	47	2	carved	carve	VBD
homer-odyssey-850_15	47	3	the	the	DT
homer-odyssey-850_15	47	4	meat	meat	NN
homer-odyssey-850_15	47	5	and	and	CC
homer-odyssey-850_15	47	6	gave	give	VBD
homer-odyssey-850_15	47	7	them	-PRON-	PRP
homer-odyssey-850_15	47	8	each	each	DT
homer-odyssey-850_15	47	9	their	-PRON-	PRP$
homer-odyssey-850_15	47	10	portions	portion	NNS
homer-odyssey-850_15	47	11	,	,	,
homer-odyssey-850_15	47	12	while	while	IN
homer-odyssey-850_15	47	13	Megapenthes	megapenthes	NNP
homer-odyssey-850_15	47	14	poured	pour	VBD
homer-odyssey-850_15	47	15	out	out	RP
homer-odyssey-850_15	47	16	the	the	DT
homer-odyssey-850_15	47	17	wine	wine	NN
homer-odyssey-850_15	47	18	.	.	.
homer-odyssey-850_15	48	1	Then	then	RB
homer-odyssey-850_15	48	2	they	-PRON-	PRP
homer-odyssey-850_15	48	3	laid	lay	VBD
homer-odyssey-850_15	48	4	their	-PRON-	PRP$
homer-odyssey-850_15	48	5	hands	hand	NNS
homer-odyssey-850_15	48	6	upon	upon	IN
homer-odyssey-850_15	48	7	the	the	DT
homer-odyssey-850_15	48	8	good	good	JJ
homer-odyssey-850_15	48	9	things	thing	NNS
homer-odyssey-850_15	48	10	that	that	WDT
homer-odyssey-850_15	48	11	were	be	VBD
homer-odyssey-850_15	48	12	before	before	IN
homer-odyssey-850_15	48	13	them	-PRON-	PRP
homer-odyssey-850_15	48	14	,	,	,
homer-odyssey-850_15	48	15	but	but	CC
homer-odyssey-850_15	48	16	as	as	RB
homer-odyssey-850_15	48	17	soon	soon	RB
homer-odyssey-850_15	48	18	as	as	IN
homer-odyssey-850_15	48	19	they	-PRON-	PRP
homer-odyssey-850_15	48	20	had	have	VBD
homer-odyssey-850_15	48	21	had	have	VBN
homer-odyssey-850_15	48	22	enough	enough	JJ
homer-odyssey-850_15	48	23	to	to	TO
homer-odyssey-850_15	48	24	eat	eat	VB
homer-odyssey-850_15	48	25	and	and	CC
homer-odyssey-850_15	48	26	drink	drink	VB
homer-odyssey-850_15	48	27	Telemachus	telemachus	NNP
homer-odyssey-850_15	48	28	and	and	CC
homer-odyssey-850_15	48	29	Pisistratus	pisistratus	NNP
homer-odyssey-850_15	48	30	yoked	yoke	VBD
homer-odyssey-850_15	48	31	the	the	DT
homer-odyssey-850_15	48	32	horses	horse	NNS
homer-odyssey-850_15	48	33	,	,	,
homer-odyssey-850_15	48	34	and	and	CC
homer-odyssey-850_15	48	35	took	take	VBD
homer-odyssey-850_15	48	36	their	-PRON-	PRP$
homer-odyssey-850_15	48	37	places	place	NNS
homer-odyssey-850_15	48	38	in	in	IN
homer-odyssey-850_15	48	39	the	the	DT
homer-odyssey-850_15	48	40	chariot	chariot	NN
homer-odyssey-850_15	48	41	.	.	.
homer-odyssey-850_15	49	1	They	-PRON-	PRP
homer-odyssey-850_15	49	2	drove	drive	VBD
homer-odyssey-850_15	49	3	out	out	RB
homer-odyssey-850_15	49	4	through	through	IN
homer-odyssey-850_15	49	5	the	the	DT
homer-odyssey-850_15	49	6	inner	inner	JJ
homer-odyssey-850_15	49	7	gateway	gateway	NN
homer-odyssey-850_15	49	8	and	and	CC
homer-odyssey-850_15	49	9	under	under	IN
homer-odyssey-850_15	49	10	the	the	DT
homer-odyssey-850_15	49	11	echoing	echo	VBG
homer-odyssey-850_15	49	12	gatehouse	gatehouse	NN
homer-odyssey-850_15	49	13	of	of	IN
homer-odyssey-850_15	49	14	the	the	DT
homer-odyssey-850_15	49	15	outer	outer	JJ
homer-odyssey-850_15	49	16	court	court	NN
homer-odyssey-850_15	49	17	,	,	,
homer-odyssey-850_15	49	18	and	and	CC
homer-odyssey-850_15	49	19	Menelaus	menelaus	NNP
homer-odyssey-850_15	49	20	came	come	VBD
homer-odyssey-850_15	49	21	after	after	IN
homer-odyssey-850_15	49	22	them	-PRON-	PRP
homer-odyssey-850_15	49	23	with	with	IN
homer-odyssey-850_15	49	24	a	a	DT
homer-odyssey-850_15	49	25	golden	golden	JJ
homer-odyssey-850_15	49	26	goblet	goblet	NN
homer-odyssey-850_15	49	27	of	of	IN
homer-odyssey-850_15	49	28	wine	wine	NN
homer-odyssey-850_15	49	29	in	in	IN
homer-odyssey-850_15	49	30	his	-PRON-	PRP$
homer-odyssey-850_15	49	31	right	right	JJ
homer-odyssey-850_15	49	32	hand	hand	NN
homer-odyssey-850_15	49	33	that	that	WDT
homer-odyssey-850_15	49	34	they	-PRON-	PRP
homer-odyssey-850_15	49	35	might	may	MD
homer-odyssey-850_15	49	36	make	make	VB
homer-odyssey-850_15	49	37	a	a	DT
homer-odyssey-850_15	49	38	drink-	drink-	JJ
homer-odyssey-850_15	49	39	offering	offering	NN
homer-odyssey-850_15	49	40	before	before	IN
homer-odyssey-850_15	49	41	they	-PRON-	PRP
homer-odyssey-850_15	49	42	set	set	VBD
homer-odyssey-850_15	49	43	out	out	RP
homer-odyssey-850_15	49	44	.	.	.
homer-odyssey-850_15	50	1	He	-PRON-	PRP
homer-odyssey-850_15	50	2	stood	stand	VBD
homer-odyssey-850_15	50	3	in	in	IN
homer-odyssey-850_15	50	4	front	front	NN
homer-odyssey-850_15	50	5	of	of	IN
homer-odyssey-850_15	50	6	the	the	DT
homer-odyssey-850_15	50	7	horses	horse	NNS
homer-odyssey-850_15	50	8	and	and	CC
homer-odyssey-850_15	50	9	pledged	pledge	VBD
homer-odyssey-850_15	50	10	them	-PRON-	PRP
homer-odyssey-850_15	50	11	,	,	,
homer-odyssey-850_15	50	12	saying	say	VBG
homer-odyssey-850_15	50	13	,	,	,
homer-odyssey-850_15	50	14	"	"	``
homer-odyssey-850_15	50	15	Farewell	farewell	NN
homer-odyssey-850_15	50	16	to	to	IN
homer-odyssey-850_15	50	17	both	both	DT
homer-odyssey-850_15	50	18	of	of	IN
homer-odyssey-850_15	50	19	you	-PRON-	PRP
homer-odyssey-850_15	50	20	;	;	:
homer-odyssey-850_15	50	21	see	see	VB
homer-odyssey-850_15	50	22	that	that	IN
homer-odyssey-850_15	50	23	you	-PRON-	PRP
homer-odyssey-850_15	50	24	tell	tell	VBP
homer-odyssey-850_15	50	25	Nestor	nestor	NNP
homer-odyssey-850_15	50	26	how	how	WRB
homer-odyssey-850_15	50	27	I	-PRON-	PRP
homer-odyssey-850_15	50	28	have	have	VBP
homer-odyssey-850_15	50	29	treated	treat	VBN
homer-odyssey-850_15	50	30	you	-PRON-	PRP
homer-odyssey-850_15	50	31	,	,	,
homer-odyssey-850_15	50	32	for	for	IN
homer-odyssey-850_15	50	33	he	-PRON-	PRP
homer-odyssey-850_15	50	34	was	be	VBD
homer-odyssey-850_15	50	35	as	as	RB
homer-odyssey-850_15	50	36	kind	kind	JJ
homer-odyssey-850_15	50	37	to	to	IN
homer-odyssey-850_15	50	38	me	-PRON-	PRP
homer-odyssey-850_15	50	39	as	as	IN
homer-odyssey-850_15	50	40	any	any	DT
homer-odyssey-850_15	50	41	father	father	NN
homer-odyssey-850_15	50	42	could	could	MD
homer-odyssey-850_15	50	43	be	be	VB
homer-odyssey-850_15	50	44	while	while	IN
homer-odyssey-850_15	50	45	we	-PRON-	PRP
homer-odyssey-850_15	50	46	Achaeans	achaeans	NNPS
homer-odyssey-850_15	50	47	were	be	VBD
homer-odyssey-850_15	50	48	fighting	fight	VBG
homer-odyssey-850_15	50	49	before	before	IN
homer-odyssey-850_15	50	50	Troy	troy	NNP
homer-odyssey-850_15	50	51	.	.	.
homer-odyssey-850_15	50	52	"	"	''
homer-odyssey-850_15	51	1	"	"	``
homer-odyssey-850_15	51	2	We	-PRON-	PRP
homer-odyssey-850_15	51	3	will	will	MD
homer-odyssey-850_15	51	4	be	be	VB
homer-odyssey-850_15	51	5	sure	sure	JJ
homer-odyssey-850_15	51	6	,	,	,
homer-odyssey-850_15	51	7	sir	sir	NN
homer-odyssey-850_15	51	8	,	,	,
homer-odyssey-850_15	51	9	"	"	''
homer-odyssey-850_15	51	10	answered	answer	VBD
homer-odyssey-850_15	51	11	Telemachus	telemachus	NN
homer-odyssey-850_15	51	12	,	,	,
homer-odyssey-850_15	51	13	"	"	''
homer-odyssey-850_15	51	14	to	to	TO
homer-odyssey-850_15	51	15	tell	tell	VB
homer-odyssey-850_15	51	16	him	-PRON-	PRP
homer-odyssey-850_15	51	17	everything	everything	NN
homer-odyssey-850_15	51	18	as	as	RB
homer-odyssey-850_15	51	19	soon	soon	RB
homer-odyssey-850_15	51	20	as	as	IN
homer-odyssey-850_15	51	21	we	-PRON-	PRP
homer-odyssey-850_15	51	22	see	see	VBP
homer-odyssey-850_15	51	23	him	-PRON-	PRP
homer-odyssey-850_15	51	24	.	.	.
homer-odyssey-850_15	52	1	I	-PRON-	PRP
homer-odyssey-850_15	52	2	wish	wish	VBP
homer-odyssey-850_15	52	3	I	-PRON-	PRP
homer-odyssey-850_15	52	4	were	be	VBD
homer-odyssey-850_15	52	5	as	as	RB
homer-odyssey-850_15	52	6	certain	certain	JJ
homer-odyssey-850_15	52	7	of	of	IN
homer-odyssey-850_15	52	8	finding	find	VBG
homer-odyssey-850_15	52	9	Ulysses	ulyss	NNS
homer-odyssey-850_15	52	10	returned	return	VBD
homer-odyssey-850_15	52	11	when	when	WRB
homer-odyssey-850_15	52	12	I	-PRON-	PRP
homer-odyssey-850_15	52	13	get	get	VBP
homer-odyssey-850_15	52	14	back	back	RB
homer-odyssey-850_15	52	15	to	to	IN
homer-odyssey-850_15	52	16	Ithaca	ithaca	NNP
homer-odyssey-850_15	52	17	,	,	,
homer-odyssey-850_15	52	18	that	that	IN
homer-odyssey-850_15	52	19	I	-PRON-	PRP
homer-odyssey-850_15	52	20	might	may	MD
homer-odyssey-850_15	52	21	tell	tell	VB
homer-odyssey-850_15	52	22	him	-PRON-	PRP
homer-odyssey-850_15	52	23	of	of	IN
homer-odyssey-850_15	52	24	the	the	DT
homer-odyssey-850_15	52	25	very	very	RB
homer-odyssey-850_15	52	26	great	great	JJ
homer-odyssey-850_15	52	27	kindness	kindness	NN
homer-odyssey-850_15	52	28	you	-PRON-	PRP
homer-odyssey-850_15	52	29	have	have	VBP
homer-odyssey-850_15	52	30	shown	show	VBN
homer-odyssey-850_15	52	31	me	-PRON-	PRP
homer-odyssey-850_15	52	32	and	and	CC
homer-odyssey-850_15	52	33	of	of	IN
homer-odyssey-850_15	52	34	the	the	DT
homer-odyssey-850_15	52	35	many	many	JJ
homer-odyssey-850_15	52	36	beautiful	beautiful	JJ
homer-odyssey-850_15	52	37	presents	present	NNS
homer-odyssey-850_15	52	38	I	-PRON-	PRP
homer-odyssey-850_15	52	39	am	be	VBP
homer-odyssey-850_15	52	40	taking	take	VBG
homer-odyssey-850_15	52	41	with	with	IN
homer-odyssey-850_15	52	42	me	-PRON-	PRP
homer-odyssey-850_15	52	43	.	.	.
homer-odyssey-850_15	52	44	"	"	''
homer-odyssey-850_15	53	1	As	as	IN
homer-odyssey-850_15	53	2	he	-PRON-	PRP
homer-odyssey-850_15	53	3	was	be	VBD
homer-odyssey-850_15	53	4	thus	thus	RB
homer-odyssey-850_15	53	5	speaking	speak	VBG
homer-odyssey-850_15	53	6	a	a	DT
homer-odyssey-850_15	53	7	bird	bird	NN
homer-odyssey-850_15	53	8	flew	fly	VBD
homer-odyssey-850_15	53	9	on	on	IN
homer-odyssey-850_15	53	10	his	-PRON-	PRP$
homer-odyssey-850_15	53	11	right	right	JJ
homer-odyssey-850_15	53	12	hand--	hand--	NN
homer-odyssey-850_15	53	13	an	an	DT
homer-odyssey-850_15	53	14	eagle	eagle	NN
homer-odyssey-850_15	53	15	with	with	IN
homer-odyssey-850_15	53	16	a	a	DT
homer-odyssey-850_15	53	17	great	great	JJ
homer-odyssey-850_15	53	18	white	white	JJ
homer-odyssey-850_15	53	19	goose	goose	NN
homer-odyssey-850_15	53	20	in	in	IN
homer-odyssey-850_15	53	21	its	-PRON-	PRP$
homer-odyssey-850_15	53	22	talons	talon	NNS
homer-odyssey-850_15	53	23	which	which	WDT
homer-odyssey-850_15	53	24	it	-PRON-	PRP
homer-odyssey-850_15	53	25	had	have	VBD
homer-odyssey-850_15	53	26	carried	carry	VBN
homer-odyssey-850_15	53	27	off	off	RP
homer-odyssey-850_15	53	28	from	from	IN
homer-odyssey-850_15	53	29	the	the	DT
homer-odyssey-850_15	53	30	farm	farm	NN
homer-odyssey-850_15	53	31	yard--	yard--	NN
homer-odyssey-850_15	53	32	and	and	CC
homer-odyssey-850_15	53	33	all	all	PDT
homer-odyssey-850_15	53	34	the	the	DT
homer-odyssey-850_15	53	35	men	man	NNS
homer-odyssey-850_15	53	36	and	and	CC
homer-odyssey-850_15	53	37	women	woman	NNS
homer-odyssey-850_15	53	38	were	be	VBD
homer-odyssey-850_15	53	39	running	run	VBG
homer-odyssey-850_15	53	40	after	after	IN
homer-odyssey-850_15	53	41	it	-PRON-	PRP
homer-odyssey-850_15	53	42	and	and	CC
homer-odyssey-850_15	53	43	shouting	shout	VBG
homer-odyssey-850_15	53	44	.	.	.
homer-odyssey-850_15	54	1	It	-PRON-	PRP
homer-odyssey-850_15	54	2	came	come	VBD
homer-odyssey-850_15	54	3	quite	quite	RB
homer-odyssey-850_15	54	4	close	close	JJ
homer-odyssey-850_15	54	5	up	up	RP
homer-odyssey-850_15	54	6	to	to	IN
homer-odyssey-850_15	54	7	them	-PRON-	PRP
homer-odyssey-850_15	54	8	and	and	CC
homer-odyssey-850_15	54	9	flew	fly	VBD
homer-odyssey-850_15	54	10	away	away	RB
homer-odyssey-850_15	54	11	on	on	IN
homer-odyssey-850_15	54	12	their	-PRON-	PRP$
homer-odyssey-850_15	54	13	right	right	JJ
homer-odyssey-850_15	54	14	hands	hand	NNS
homer-odyssey-850_15	54	15	in	in	IN
homer-odyssey-850_15	54	16	front	front	NN
homer-odyssey-850_15	54	17	of	of	IN
homer-odyssey-850_15	54	18	the	the	DT
homer-odyssey-850_15	54	19	horses	horse	NNS
homer-odyssey-850_15	54	20	.	.	.
homer-odyssey-850_15	55	1	When	when	WRB
homer-odyssey-850_15	55	2	they	-PRON-	PRP
homer-odyssey-850_15	55	3	saw	see	VBD
homer-odyssey-850_15	55	4	it	-PRON-	PRP
homer-odyssey-850_15	55	5	they	-PRON-	PRP
homer-odyssey-850_15	55	6	were	be	VBD
homer-odyssey-850_15	55	7	glad	glad	JJ
homer-odyssey-850_15	55	8	,	,	,
homer-odyssey-850_15	55	9	and	and	CC
homer-odyssey-850_15	55	10	their	-PRON-	PRP$
homer-odyssey-850_15	55	11	hearts	heart	NNS
homer-odyssey-850_15	55	12	took	take	VBD
homer-odyssey-850_15	55	13	comfort	comfort	NN
homer-odyssey-850_15	55	14	within	within	IN
homer-odyssey-850_15	55	15	them	-PRON-	PRP
homer-odyssey-850_15	55	16	,	,	,
homer-odyssey-850_15	55	17	whereon	whereon	NN
homer-odyssey-850_15	55	18	Pisistratus	pisistratus	NNP
homer-odyssey-850_15	55	19	said	say	VBD
homer-odyssey-850_15	55	20	,	,	,
homer-odyssey-850_15	55	21	"	"	``
homer-odyssey-850_15	55	22	Tell	tell	VB
homer-odyssey-850_15	55	23	me	-PRON-	PRP
homer-odyssey-850_15	55	24	,	,	,
homer-odyssey-850_15	55	25	Menelaus	menelaus	NNP
homer-odyssey-850_15	55	26	,	,	,
homer-odyssey-850_15	55	27	has	have	VBZ
homer-odyssey-850_15	55	28	heaven	heaven	NNP
homer-odyssey-850_15	55	29	sent	send	VBN
homer-odyssey-850_15	55	30	this	this	DT
homer-odyssey-850_15	55	31	omen	oman	NNS
homer-odyssey-850_15	55	32	for	for	IN
homer-odyssey-850_15	55	33	us	-PRON-	PRP
homer-odyssey-850_15	55	34	or	or	CC
homer-odyssey-850_15	55	35	for	for	IN
homer-odyssey-850_15	55	36	you	-PRON-	PRP
homer-odyssey-850_15	55	37	?	?	.
homer-odyssey-850_15	55	38	"	"	''
homer-odyssey-850_15	56	1	Menelaus	menelaus	NNP
homer-odyssey-850_15	56	2	was	be	VBD
homer-odyssey-850_15	56	3	thinking	think	VBG
homer-odyssey-850_15	56	4	what	what	WP
homer-odyssey-850_15	56	5	would	would	MD
homer-odyssey-850_15	56	6	be	be	VB
homer-odyssey-850_15	56	7	the	the	DT
homer-odyssey-850_15	56	8	most	most	RBS
homer-odyssey-850_15	56	9	proper	proper	JJ
homer-odyssey-850_15	56	10	answer	answer	NN
homer-odyssey-850_15	56	11	for	for	IN
homer-odyssey-850_15	56	12	him	-PRON-	PRP
homer-odyssey-850_15	56	13	to	to	TO
homer-odyssey-850_15	56	14	make	make	VB
homer-odyssey-850_15	56	15	,	,	,
homer-odyssey-850_15	56	16	but	but	CC
homer-odyssey-850_15	56	17	Helen	helen	NNP
homer-odyssey-850_15	56	18	was	be	VBD
homer-odyssey-850_15	56	19	too	too	RB
homer-odyssey-850_15	56	20	quick	quick	JJ
homer-odyssey-850_15	56	21	for	for	IN
homer-odyssey-850_15	56	22	him	-PRON-	PRP
homer-odyssey-850_15	56	23	and	and	CC
homer-odyssey-850_15	56	24	said	say	VBD
homer-odyssey-850_15	56	25	,	,	,
homer-odyssey-850_15	56	26	"	"	``
homer-odyssey-850_15	56	27	I	-PRON-	PRP
homer-odyssey-850_15	56	28	will	will	MD
homer-odyssey-850_15	56	29	read	read	VB
homer-odyssey-850_15	56	30	this	this	DT
homer-odyssey-850_15	56	31	matter	matter	NN
homer-odyssey-850_15	56	32	as	as	IN
homer-odyssey-850_15	56	33	heaven	heaven	NNP
homer-odyssey-850_15	56	34	has	have	VBZ
homer-odyssey-850_15	56	35	put	put	VBN
homer-odyssey-850_15	56	36	it	-PRON-	PRP
homer-odyssey-850_15	56	37	in	in	IN
homer-odyssey-850_15	56	38	my	-PRON-	PRP$
homer-odyssey-850_15	56	39	heart	heart	NN
homer-odyssey-850_15	56	40	,	,	,
homer-odyssey-850_15	56	41	and	and	CC
homer-odyssey-850_15	56	42	as	as	IN
homer-odyssey-850_15	56	43	I	-PRON-	PRP
homer-odyssey-850_15	56	44	doubt	doubt	VBP
homer-odyssey-850_15	56	45	not	not	RB
homer-odyssey-850_15	56	46	that	that	IN
homer-odyssey-850_15	56	47	it	-PRON-	PRP
homer-odyssey-850_15	56	48	will	will	MD
homer-odyssey-850_15	56	49	come	come	VB
homer-odyssey-850_15	56	50	to	to	TO
homer-odyssey-850_15	56	51	pass	pass	VB
homer-odyssey-850_15	56	52	.	.	.
homer-odyssey-850_15	57	1	The	the	DT
homer-odyssey-850_15	57	2	eagle	eagle	NN
homer-odyssey-850_15	57	3	came	come	VBD
homer-odyssey-850_15	57	4	from	from	IN
homer-odyssey-850_15	57	5	the	the	DT
homer-odyssey-850_15	57	6	mountain	mountain	NN
homer-odyssey-850_15	57	7	where	where	WRB
homer-odyssey-850_15	57	8	it	-PRON-	PRP
homer-odyssey-850_15	57	9	was	be	VBD
homer-odyssey-850_15	57	10	bred	breed	VBN
homer-odyssey-850_15	57	11	and	and	CC
homer-odyssey-850_15	57	12	has	have	VBZ
homer-odyssey-850_15	57	13	its	-PRON-	PRP$
homer-odyssey-850_15	57	14	nest	nest	NN
homer-odyssey-850_15	57	15	,	,	,
homer-odyssey-850_15	57	16	and	and	CC
homer-odyssey-850_15	57	17	in	in	IN
homer-odyssey-850_15	57	18	like	like	IN
homer-odyssey-850_15	57	19	manner	manner	NN
homer-odyssey-850_15	57	20	Ulysses	ulyss	NNS
homer-odyssey-850_15	57	21	,	,	,
homer-odyssey-850_15	57	22	after	after	IN
homer-odyssey-850_15	57	23	having	have	VBG
homer-odyssey-850_15	57	24	travelled	travel	VBN
homer-odyssey-850_15	57	25	far	far	RB
homer-odyssey-850_15	57	26	and	and	CC
homer-odyssey-850_15	57	27	suffered	suffer	VBN
homer-odyssey-850_15	57	28	much	much	RB
homer-odyssey-850_15	57	29	,	,	,
homer-odyssey-850_15	57	30	will	will	MD
homer-odyssey-850_15	57	31	return	return	VB
homer-odyssey-850_15	57	32	to	to	TO
homer-odyssey-850_15	57	33	take	take	VB
homer-odyssey-850_15	57	34	his	-PRON-	PRP$
homer-odyssey-850_15	57	35	revenge--	revenge--	NNS
homer-odyssey-850_15	57	36	if	if	IN
homer-odyssey-850_15	57	37	indeed	indeed	RB
homer-odyssey-850_15	57	38	he	-PRON-	PRP
homer-odyssey-850_15	57	39	is	be	VBZ
homer-odyssey-850_15	57	40	not	not	RB
homer-odyssey-850_15	57	41	back	back	RB
homer-odyssey-850_15	57	42	already	already	RB
homer-odyssey-850_15	57	43	and	and	CC
homer-odyssey-850_15	57	44	hatching	hatch	VBG
homer-odyssey-850_15	57	45	mischief	mischief	NN
homer-odyssey-850_15	57	46	for	for	IN
homer-odyssey-850_15	57	47	the	the	DT
homer-odyssey-850_15	57	48	suitors	suitor	NNS
homer-odyssey-850_15	57	49	.	.	.
homer-odyssey-850_15	57	50	"	"	''
homer-odyssey-850_15	58	1	"	"	``
homer-odyssey-850_15	58	2	May	may	MD
homer-odyssey-850_15	58	3	Jove	jove	VB
homer-odyssey-850_15	58	4	so	so	RB
homer-odyssey-850_15	58	5	grant	grant	VB
homer-odyssey-850_15	58	6	it	-PRON-	PRP
homer-odyssey-850_15	58	7	,	,	,
homer-odyssey-850_15	58	8	"	"	''
homer-odyssey-850_15	58	9	replied	reply	VBD
homer-odyssey-850_15	58	10	Telemachus	telemachus	NN
homer-odyssey-850_15	58	11	,	,	,
homer-odyssey-850_15	58	12	"	"	''
homer-odyssey-850_15	58	13	if	if	IN
homer-odyssey-850_15	58	14	it	-PRON-	PRP
homer-odyssey-850_15	58	15	should	should	MD
homer-odyssey-850_15	58	16	prove	prove	VB
homer-odyssey-850_15	58	17	to	to	TO
homer-odyssey-850_15	58	18	be	be	VB
homer-odyssey-850_15	58	19	so	so	RB
homer-odyssey-850_15	58	20	,	,	,
homer-odyssey-850_15	58	21	I	-PRON-	PRP
homer-odyssey-850_15	58	22	will	will	MD
homer-odyssey-850_15	58	23	make	make	VB
homer-odyssey-850_15	58	24	vows	vow	NNS
homer-odyssey-850_15	58	25	to	to	IN
homer-odyssey-850_15	58	26	you	-PRON-	PRP
homer-odyssey-850_15	58	27	as	as	IN
homer-odyssey-850_15	58	28	though	though	IN
homer-odyssey-850_15	58	29	you	-PRON-	PRP
homer-odyssey-850_15	58	30	were	be	VBD
homer-odyssey-850_15	58	31	a	a	DT
homer-odyssey-850_15	58	32	god	god	NN
homer-odyssey-850_15	58	33	,	,	,
homer-odyssey-850_15	58	34	even	even	RB
homer-odyssey-850_15	58	35	when	when	WRB
homer-odyssey-850_15	58	36	I	-PRON-	PRP
homer-odyssey-850_15	58	37	am	be	VBP
homer-odyssey-850_15	58	38	at	at	IN
homer-odyssey-850_15	58	39	home	home	NN
homer-odyssey-850_15	58	40	.	.	.
homer-odyssey-850_15	58	41	"	"	''
homer-odyssey-850_15	59	1	As	as	IN
homer-odyssey-850_15	59	2	he	-PRON-	PRP
homer-odyssey-850_15	59	3	spoke	speak	VBD
homer-odyssey-850_15	59	4	he	-PRON-	PRP
homer-odyssey-850_15	59	5	lashed	lash	VBD
homer-odyssey-850_15	59	6	his	-PRON-	PRP$
homer-odyssey-850_15	59	7	horses	horse	NNS
homer-odyssey-850_15	59	8	and	and	CC
homer-odyssey-850_15	59	9	they	-PRON-	PRP
homer-odyssey-850_15	59	10	started	start	VBD
homer-odyssey-850_15	59	11	off	off	RP
homer-odyssey-850_15	59	12	at	at	IN
homer-odyssey-850_15	59	13	full	full	JJ
homer-odyssey-850_15	59	14	speed	speed	NN
homer-odyssey-850_15	59	15	through	through	IN
homer-odyssey-850_15	59	16	the	the	DT
homer-odyssey-850_15	59	17	town	town	NN
homer-odyssey-850_15	59	18	towards	towards	IN
homer-odyssey-850_15	59	19	the	the	DT
homer-odyssey-850_15	59	20	open	open	JJ
homer-odyssey-850_15	59	21	country	country	NN
homer-odyssey-850_15	59	22	.	.	.
homer-odyssey-850_15	60	1	They	-PRON-	PRP
homer-odyssey-850_15	60	2	swayed	sway	VBD
homer-odyssey-850_15	60	3	the	the	DT
homer-odyssey-850_15	60	4	yoke	yoke	NN
homer-odyssey-850_15	60	5	upon	upon	IN
homer-odyssey-850_15	60	6	their	-PRON-	PRP$
homer-odyssey-850_15	60	7	necks	neck	NNS
homer-odyssey-850_15	60	8	and	and	CC
homer-odyssey-850_15	60	9	travelled	travel	VBD
homer-odyssey-850_15	60	10	the	the	DT
homer-odyssey-850_15	60	11	whole	whole	JJ
homer-odyssey-850_15	60	12	day	day	NN
homer-odyssey-850_15	60	13	long	long	RB
homer-odyssey-850_15	60	14	till	till	IN
homer-odyssey-850_15	60	15	the	the	DT
homer-odyssey-850_15	60	16	sun	sun	NN
homer-odyssey-850_15	60	17	set	set	NN
homer-odyssey-850_15	60	18	and	and	CC
homer-odyssey-850_15	60	19	darkness	darkness	NN
homer-odyssey-850_15	60	20	was	be	VBD
homer-odyssey-850_15	60	21	over	over	IN
homer-odyssey-850_15	60	22	all	all	PDT
homer-odyssey-850_15	60	23	the	the	DT
homer-odyssey-850_15	60	24	land	land	NN
homer-odyssey-850_15	60	25	.	.	.
homer-odyssey-850_15	61	1	Then	then	RB
homer-odyssey-850_15	61	2	they	-PRON-	PRP
homer-odyssey-850_15	61	3	reached	reach	VBD
homer-odyssey-850_15	61	4	Pherae	pherae	NNP
homer-odyssey-850_15	61	5	,	,	,
homer-odyssey-850_15	61	6	where	where	WRB
homer-odyssey-850_15	61	7	Diocles	diocles	NNP
homer-odyssey-850_15	61	8	lived	live	VBD
homer-odyssey-850_15	61	9	who	who	WP
homer-odyssey-850_15	61	10	was	be	VBD
homer-odyssey-850_15	61	11	son	son	NN
homer-odyssey-850_15	61	12	of	of	IN
homer-odyssey-850_15	61	13	Ortilochus	ortilochus	NNP
homer-odyssey-850_15	61	14	,	,	,
homer-odyssey-850_15	61	15	the	the	DT
homer-odyssey-850_15	61	16	son	son	NN
homer-odyssey-850_15	61	17	of	of	IN
homer-odyssey-850_15	61	18	Alpheus	alpheus	NNP
homer-odyssey-850_15	61	19	.	.	.
homer-odyssey-850_15	62	1	There	there	RB
homer-odyssey-850_15	62	2	they	-PRON-	PRP
homer-odyssey-850_15	62	3	passed	pass	VBD
homer-odyssey-850_15	62	4	the	the	DT
homer-odyssey-850_15	62	5	night	night	NN
homer-odyssey-850_15	62	6	and	and	CC
homer-odyssey-850_15	62	7	were	be	VBD
homer-odyssey-850_15	62	8	treated	treat	VBN
homer-odyssey-850_15	62	9	hospitably	hospitably	RB
homer-odyssey-850_15	62	10	.	.	.
homer-odyssey-850_15	63	1	When	when	WRB
homer-odyssey-850_15	63	2	the	the	DT
homer-odyssey-850_15	63	3	child	child	NN
homer-odyssey-850_15	63	4	of	of	IN
homer-odyssey-850_15	63	5	morning	morning	NN
homer-odyssey-850_15	63	6	,	,	,
[...]
homer-odyssey-850_15	174	70	,	,	,
homer-odyssey-850_15	174	71	but	but	CC
homer-odyssey-850_15	174	72	sits	sit	VBZ
homer-odyssey-850_15	174	73	at	at	IN
homer-odyssey-850_15	174	74	her	-PRON-	PRP$
homer-odyssey-850_15	174	75	loom	loom	NN
homer-odyssey-850_15	174	76	weaving	weaving	NN
homer-odyssey-850_15	174	77	in	in	IN
homer-odyssey-850_15	174	78	an	an	DT
homer-odyssey-850_15	174	79	upper	upper	JJ
homer-odyssey-850_15	174	80	chamber	chamber	NN
homer-odyssey-850_15	174	81	,	,	,
homer-odyssey-850_15	174	82	out	out	IN
homer-odyssey-850_15	174	83	of	of	IN
homer-odyssey-850_15	174	84	their	-PRON-	PRP$
homer-odyssey-850_15	174	85	way	way	NN
homer-odyssey-850_15	174	86	;	;	:
homer-odyssey-850_15	174	87	but	but	CC
homer-odyssey-850_15	174	88	I	-PRON-	PRP
homer-odyssey-850_15	174	89	can	can	MD
homer-odyssey-850_15	174	90	tell	tell	VB
homer-odyssey-850_15	174	91	you	-PRON-	PRP
homer-odyssey-850_15	174	92	a	a	DT
homer-odyssey-850_15	174	93	man	man	NN
homer-odyssey-850_15	174	94	whose	whose	WP$
homer-odyssey-850_15	174	95	house	house	NN
homer-odyssey-850_15	174	96	you	-PRON-	PRP
homer-odyssey-850_15	174	97	can	can	MD
homer-odyssey-850_15	174	98	go	go	VB
homer-odyssey-850_15	174	99	to--	to--	NNS
homer-odyssey-850_15	174	100	I	-PRON-	PRP
homer-odyssey-850_15	174	101	mean	mean	VBP
homer-odyssey-850_15	174	102	Eurymachus	eurymachus	RB
homer-odyssey-850_15	174	103	the	the	DT
homer-odyssey-850_15	174	104	son	son	NN
homer-odyssey-850_15	174	105	of	of	IN
homer-odyssey-850_15	174	106	Polybus	polybus	NNP
homer-odyssey-850_15	174	107	,	,	,
homer-odyssey-850_15	174	108	who	who	WP
homer-odyssey-850_15	174	109	is	be	VBZ
homer-odyssey-850_15	174	110	held	hold	VBN
homer-odyssey-850_15	174	111	in	in	IN
homer-odyssey-850_15	174	112	the	the	DT
homer-odyssey-850_15	174	113	highest	high	JJS
homer-odyssey-850_15	174	114	estimation	estimation	NN
homer-odyssey-850_15	174	115	by	by	IN
homer-odyssey-850_15	174	116	every	every	DT
homer-odyssey-850_15	174	117	one	one	CD
homer-odyssey-850_15	174	118	in	in	IN
homer-odyssey-850_15	174	119	Ithaca	ithaca	NNP
homer-odyssey-850_15	174	120	.	.	.
homer-odyssey-850_15	175	1	He	-PRON-	PRP
homer-odyssey-850_15	175	2	is	be	VBZ
homer-odyssey-850_15	175	3	much	much	RB
homer-odyssey-850_15	175	4	the	the	DT
homer-odyssey-850_15	175	5	best	good	JJS
homer-odyssey-850_15	175	6	man	man	NN
homer-odyssey-850_15	175	7	and	and	CC
homer-odyssey-850_15	175	8	the	the	DT
homer-odyssey-850_15	175	9	most	most	JJS
homer-odyssey-850_15	175	10	persistent	persistent	JJ
homer-odyssey-850_15	175	11	wooer	wooer	NN
homer-odyssey-850_15	175	12	,	,	,
homer-odyssey-850_15	175	13	of	of	IN
homer-odyssey-850_15	175	14	all	all	PDT
homer-odyssey-850_15	175	15	those	those	DT
homer-odyssey-850_15	175	16	who	who	WP
homer-odyssey-850_15	175	17	are	be	VBP
homer-odyssey-850_15	175	18	paying	pay	VBG
homer-odyssey-850_15	175	19	court	court	NN
homer-odyssey-850_15	175	20	to	to	IN
homer-odyssey-850_15	175	21	my	-PRON-	PRP$
homer-odyssey-850_15	175	22	mother	mother	NN
homer-odyssey-850_15	175	23	and	and	CC
homer-odyssey-850_15	175	24	trying	try	VBG
homer-odyssey-850_15	175	25	to	to	TO
homer-odyssey-850_15	175	26	take	take	VB
homer-odyssey-850_15	175	27	Ulysses	ulysses	NNPS
homer-odyssey-850_15	175	28	'	'	POS
homer-odyssey-850_15	175	29	place	place	NN
homer-odyssey-850_15	175	30	.	.	.
homer-odyssey-850_15	176	1	Jove	jove	VB
homer-odyssey-850_15	176	2	,	,	,
homer-odyssey-850_15	176	3	however	however	RB
homer-odyssey-850_15	176	4	,	,	,
homer-odyssey-850_15	176	5	in	in	IN
homer-odyssey-850_15	176	6	heaven	heaven	NNP
homer-odyssey-850_15	176	7	alone	alone	RB
homer-odyssey-850_15	176	8	knows	know	VBZ
homer-odyssey-850_15	176	9	whether	whether	IN
homer-odyssey-850_15	176	10	or	or	CC
homer-odyssey-850_15	176	11	no	no	UH
homer-odyssey-850_15	176	12	they	-PRON-	PRP
homer-odyssey-850_15	176	13	will	will	MD
homer-odyssey-850_15	176	14	come	come	VB
homer-odyssey-850_15	176	15	to	to	IN
homer-odyssey-850_15	176	16	a	a	DT
homer-odyssey-850_15	176	17	bad	bad	JJ
homer-odyssey-850_15	176	18	end	end	NN
homer-odyssey-850_15	176	19	before	before	IN
homer-odyssey-850_15	176	20	the	the	DT
homer-odyssey-850_15	176	21	marriage	marriage	NN
homer-odyssey-850_15	176	22	takes	take	VBZ
homer-odyssey-850_15	176	23	place	place	NN
homer-odyssey-850_15	176	24	.	.	.
homer-odyssey-850_15	176	25	"	"	''
homer-odyssey-850_15	177	1	As	as	IN
homer-odyssey-850_15	177	2	he	-PRON-	PRP
homer-odyssey-850_15	177	3	was	be	VBD
homer-odyssey-850_15	177	4	speaking	speak	VBG
homer-odyssey-850_15	177	5	a	a	DT
homer-odyssey-850_15	177	6	bird	bird	NN
homer-odyssey-850_15	177	7	flew	fly	VBD
homer-odyssey-850_15	177	8	by	by	IN
homer-odyssey-850_15	177	9	upon	upon	IN
homer-odyssey-850_15	177	10	his	-PRON-	PRP$
homer-odyssey-850_15	177	11	right	right	JJ
homer-odyssey-850_15	177	12	hand--	hand--	NN
homer-odyssey-850_15	177	13	a	a	DT
homer-odyssey-850_15	177	14	hawk	hawk	NN
homer-odyssey-850_15	177	15	,	,	,
homer-odyssey-850_15	177	16	Apollo	apollo	NNP
homer-odyssey-850_15	177	17	's	's	POS
homer-odyssey-850_15	177	18	messenger	messenger	NN
homer-odyssey-850_15	177	19	.	.	.
homer-odyssey-850_15	178	1	It	-PRON-	PRP
homer-odyssey-850_15	178	2	held	hold	VBD
homer-odyssey-850_15	178	3	a	a	DT
homer-odyssey-850_15	178	4	dove	dove	NN
homer-odyssey-850_15	178	5	in	in	IN
homer-odyssey-850_15	178	6	its	-PRON-	PRP$
homer-odyssey-850_15	178	7	talons	talon	NNS
homer-odyssey-850_15	178	8	,	,	,
homer-odyssey-850_15	178	9	and	and	CC
homer-odyssey-850_15	178	10	the	the	DT
homer-odyssey-850_15	178	11	feathers	feather	NNS
homer-odyssey-850_15	178	12	,	,	,
homer-odyssey-850_15	178	13	as	as	IN
homer-odyssey-850_15	178	14	it	-PRON-	PRP
homer-odyssey-850_15	178	15	tore	tear	VBD
homer-odyssey-850_15	178	16	them	-PRON-	PRP
homer-odyssey-850_15	178	17	off	off	RP
homer-odyssey-850_15	178	18	,	,	,
homer-odyssey-850_15	178	19	{	{	-LRB-
homer-odyssey-850_15	178	20	138	138	CD
homer-odyssey-850_15	178	21	}	}	-RRB-
homer-odyssey-850_15	178	22	fell	fall	VBD
homer-odyssey-850_15	178	23	to	to	IN
homer-odyssey-850_15	178	24	the	the	DT
homer-odyssey-850_15	178	25	ground	ground	NN
homer-odyssey-850_15	178	26	midway	midway	NN
homer-odyssey-850_15	178	27	between	between	IN
homer-odyssey-850_15	178	28	Telemachus	telemachus	NNP
homer-odyssey-850_15	178	29	and	and	CC
homer-odyssey-850_15	178	30	the	the	DT
homer-odyssey-850_15	178	31	ship	ship	NN
homer-odyssey-850_15	178	32	.	.	.
homer-odyssey-850_15	179	1	On	on	IN
homer-odyssey-850_15	179	2	this	this	DT
homer-odyssey-850_15	179	3	Theoclymenus	theoclymenus	NNP
homer-odyssey-850_15	179	4	called	call	VBD
homer-odyssey-850_15	179	5	him	-PRON-	PRP
homer-odyssey-850_15	179	6	apart	apart	RB
homer-odyssey-850_15	179	7	and	and	CC
homer-odyssey-850_15	179	8	caught	catch	VBD
homer-odyssey-850_15	179	9	him	-PRON-	PRP
homer-odyssey-850_15	179	10	by	by	IN
homer-odyssey-850_15	179	11	the	the	DT
homer-odyssey-850_15	179	12	hand	hand	NN
homer-odyssey-850_15	179	13	.	.	.
homer-odyssey-850_15	179	14	"	"	''
homer-odyssey-850_15	180	1	Telemachus	telemachus	NNP
homer-odyssey-850_15	180	2	,	,	,
homer-odyssey-850_15	180	3	"	"	''
homer-odyssey-850_15	180	4	said	say	VBD
homer-odyssey-850_15	180	5	he	-PRON-	PRP
homer-odyssey-850_15	180	6	,	,	,
homer-odyssey-850_15	180	7	"	"	``
homer-odyssey-850_15	180	8	that	that	IN
homer-odyssey-850_15	180	9	bird	bird	NN
homer-odyssey-850_15	180	10	did	do	VBD
homer-odyssey-850_15	180	11	not	not	RB
homer-odyssey-850_15	180	12	fly	fly	VB
homer-odyssey-850_15	180	13	on	on	IN
homer-odyssey-850_15	180	14	your	-PRON-	PRP$
homer-odyssey-850_15	180	15	right	right	JJ
homer-odyssey-850_15	180	16	hand	hand	NN
homer-odyssey-850_15	180	17	without	without	IN
homer-odyssey-850_15	180	18	having	have	VBG
homer-odyssey-850_15	180	19	been	be	VBN
homer-odyssey-850_15	180	20	sent	send	VBN
homer-odyssey-850_15	180	21	there	there	RB
homer-odyssey-850_15	180	22	by	by	IN
homer-odyssey-850_15	180	23	some	some	DT
homer-odyssey-850_15	180	24	god	god	NN
homer-odyssey-850_15	180	25	.	.	.
homer-odyssey-850_15	181	1	As	as	RB
homer-odyssey-850_15	181	2	soon	soon	RB
homer-odyssey-850_15	181	3	as	as	IN
homer-odyssey-850_15	181	4	I	-PRON-	PRP
homer-odyssey-850_15	181	5	saw	see	VBD
homer-odyssey-850_15	181	6	it	-PRON-	PRP
homer-odyssey-850_15	181	7	I	-PRON-	PRP
homer-odyssey-850_15	181	8	knew	know	VBD
homer-odyssey-850_15	181	9	it	-PRON-	PRP
homer-odyssey-850_15	181	10	was	be	VBD
homer-odyssey-850_15	181	11	an	an	DT
homer-odyssey-850_15	181	12	omen	oman	NNS
homer-odyssey-850_15	181	13	;	;	:
homer-odyssey-850_15	181	14	it	-PRON-	PRP
homer-odyssey-850_15	181	15	means	mean	VBZ
homer-odyssey-850_15	181	16	that	that	IN
homer-odyssey-850_15	181	17	you	-PRON-	PRP
homer-odyssey-850_15	181	18	will	will	MD
homer-odyssey-850_15	181	19	remain	remain	VB
homer-odyssey-850_15	181	20	powerful	powerful	JJ
homer-odyssey-850_15	181	21	and	and	CC
homer-odyssey-850_15	181	22	that	that	IN
homer-odyssey-850_15	181	23	there	there	EX
homer-odyssey-850_15	181	24	will	will	MD
homer-odyssey-850_15	181	25	be	be	VB
homer-odyssey-850_15	181	26	no	no	DT
homer-odyssey-850_15	181	27	house	house	NN
homer-odyssey-850_15	181	28	in	in	IN
homer-odyssey-850_15	181	29	Ithaca	ithaca	NNP
homer-odyssey-850_15	181	30	more	more	RBR
homer-odyssey-850_15	181	31	royal	royal	JJ
homer-odyssey-850_15	181	32	than	than	IN
homer-odyssey-850_15	181	33	your	-PRON-	PRP$
homer-odyssey-850_15	181	34	own	own	JJ
homer-odyssey-850_15	181	35	.	.	.
homer-odyssey-850_15	181	36	"	"	''
homer-odyssey-850_15	182	1	"	"	``
homer-odyssey-850_15	182	2	I	-PRON-	PRP
homer-odyssey-850_15	182	3	wish	wish	VBP
homer-odyssey-850_15	182	4	it	-PRON-	PRP
homer-odyssey-850_15	182	5	may	may	MD
homer-odyssey-850_15	182	6	prove	prove	VB
homer-odyssey-850_15	182	7	so	so	RB
homer-odyssey-850_15	182	8	,	,	,
homer-odyssey-850_15	182	9	"	"	``
homer-odyssey-850_15	182	10	answered	answer	VBD
homer-odyssey-850_15	182	11	Telemachus	telemachus	NN
homer-odyssey-850_15	182	12	.	.	.
homer-odyssey-850_15	183	1	"	"	``
homer-odyssey-850_15	183	2	If	if	IN
homer-odyssey-850_15	183	3	it	-PRON-	PRP
homer-odyssey-850_15	183	4	does	do	VBZ
homer-odyssey-850_15	183	5	,	,	,
homer-odyssey-850_15	183	6	I	-PRON-	PRP
homer-odyssey-850_15	183	7	will	will	MD
homer-odyssey-850_15	183	8	show	show	VB
homer-odyssey-850_15	183	9	you	-PRON-	PRP
homer-odyssey-850_15	183	10	so	so	RB
homer-odyssey-850_15	183	11	much	much	RB
homer-odyssey-850_15	183	12	good	good	JJ
homer-odyssey-850_15	183	13	will	will	NN
homer-odyssey-850_15	183	14	and	and	CC
homer-odyssey-850_15	183	15	give	give	VB
homer-odyssey-850_15	183	16	you	-PRON-	PRP
homer-odyssey-850_15	183	17	so	so	RB
homer-odyssey-850_15	183	18	many	many	JJ
homer-odyssey-850_15	183	19	presents	present	NNS
homer-odyssey-850_15	183	20	that	that	IN
homer-odyssey-850_15	183	21	all	all	DT
homer-odyssey-850_15	183	22	who	who	WP
homer-odyssey-850_15	183	23	meet	meet	VBP
homer-odyssey-850_15	183	24	you	-PRON-	PRP
homer-odyssey-850_15	183	25	will	will	MD
homer-odyssey-850_15	183	26	congratulate	congratulate	VB
homer-odyssey-850_15	183	27	you	-PRON-	PRP
homer-odyssey-850_15	183	28	.	.	.
homer-odyssey-850_15	183	29	"	"	''
homer-odyssey-850_15	184	1	Then	then	RB
homer-odyssey-850_15	184	2	he	-PRON-	PRP
homer-odyssey-850_15	184	3	said	say	VBD
homer-odyssey-850_15	184	4	to	to	IN
homer-odyssey-850_15	184	5	his	-PRON-	PRP$
homer-odyssey-850_15	184	6	friend	friend	NN
homer-odyssey-850_15	184	7	Piraeus	piraeus	NNP
homer-odyssey-850_15	184	8	,	,	,
homer-odyssey-850_15	184	9	"	"	''
homer-odyssey-850_15	184	10	Piraeus	piraeus	NNP
homer-odyssey-850_15	184	11	,	,	,
homer-odyssey-850_15	184	12	son	son	NN
homer-odyssey-850_15	184	13	of	of	IN
homer-odyssey-850_15	184	14	Clytius	clytius	NNP
homer-odyssey-850_15	184	15	,	,	,
homer-odyssey-850_15	184	16	you	-PRON-	PRP
homer-odyssey-850_15	184	17	have	have	VBP
homer-odyssey-850_15	184	18	throughout	throughout	IN
homer-odyssey-850_15	184	19	shown	show	VBN
homer-odyssey-850_15	184	20	yourself	-PRON-	PRP
homer-odyssey-850_15	184	21	the	the	DT
homer-odyssey-850_15	184	22	most	most	RBS
homer-odyssey-850_15	184	23	willing	willing	JJ
homer-odyssey-850_15	184	24	to	to	TO
homer-odyssey-850_15	184	25	serve	serve	VB
homer-odyssey-850_15	184	26	me	-PRON-	PRP
homer-odyssey-850_15	184	27	of	of	IN
homer-odyssey-850_15	184	28	all	all	PDT
homer-odyssey-850_15	184	29	those	those	DT
homer-odyssey-850_15	184	30	who	who	WP
homer-odyssey-850_15	184	31	have	have	VBP
homer-odyssey-850_15	184	32	accompanied	accompany	VBN
homer-odyssey-850_15	184	33	me	-PRON-	PRP
homer-odyssey-850_15	184	34	to	to	IN
homer-odyssey-850_15	184	35	Pylos	pylos	NNP
homer-odyssey-850_15	184	36	;	;	:
homer-odyssey-850_15	184	37	I	-PRON-	PRP
homer-odyssey-850_15	184	38	wish	wish	VBP
homer-odyssey-850_15	184	39	you	-PRON-	PRP
homer-odyssey-850_15	184	40	would	would	MD
homer-odyssey-850_15	184	41	take	take	VB
homer-odyssey-850_15	184	42	this	this	DT
homer-odyssey-850_15	184	43	stranger	stranger	NN
homer-odyssey-850_15	184	44	to	to	IN
homer-odyssey-850_15	184	45	your	-PRON-	PRP$
homer-odyssey-850_15	184	46	own	own	JJ
homer-odyssey-850_15	184	47	house	house	NN
homer-odyssey-850_15	184	48	and	and	CC
homer-odyssey-850_15	184	49	entertain	entertain	VB
homer-odyssey-850_15	184	50	him	-PRON-	PRP
homer-odyssey-850_15	184	51	hospitably	hospitably	RB
homer-odyssey-850_15	184	52	till	till	IN
homer-odyssey-850_15	184	53	I	-PRON-	PRP
homer-odyssey-850_15	184	54	can	can	MD
homer-odyssey-850_15	184	55	come	come	VB
homer-odyssey-850_15	184	56	for	for	IN
homer-odyssey-850_15	184	57	him	-PRON-	PRP
homer-odyssey-850_15	184	58	.	.	.
homer-odyssey-850_15	184	59	"	"	''
homer-odyssey-850_15	185	1	And	and	CC
homer-odyssey-850_15	185	2	Piraeus	piraeus	NNP
homer-odyssey-850_15	185	3	answered	answer	VBD
homer-odyssey-850_15	185	4	,	,	,
homer-odyssey-850_15	185	5	"	"	``
homer-odyssey-850_15	185	6	Telemachus	telemachus	NN
homer-odyssey-850_15	185	7	,	,	,
homer-odyssey-850_15	185	8	you	-PRON-	PRP
homer-odyssey-850_15	185	9	may	may	MD
homer-odyssey-850_15	185	10	stay	stay	VB
homer-odyssey-850_15	185	11	away	away	RB
homer-odyssey-850_15	185	12	as	as	RB
homer-odyssey-850_15	185	13	long	long	RB
homer-odyssey-850_15	185	14	as	as	IN
homer-odyssey-850_15	185	15	you	-PRON-	PRP
homer-odyssey-850_15	185	16	please	please	VBP
homer-odyssey-850_15	185	17	,	,	,
homer-odyssey-850_15	185	18	but	but	CC
homer-odyssey-850_15	185	19	I	-PRON-	PRP
homer-odyssey-850_15	185	20	will	will	MD
homer-odyssey-850_15	185	21	look	look	VB
homer-odyssey-850_15	185	22	after	after	IN
homer-odyssey-850_15	185	23	him	-PRON-	PRP
homer-odyssey-850_15	185	24	for	for	IN
homer-odyssey-850_15	185	25	you	-PRON-	PRP
homer-odyssey-850_15	185	26	,	,	,
homer-odyssey-850_15	185	27	and	and	CC
homer-odyssey-850_15	185	28	he	-PRON-	PRP
homer-odyssey-850_15	185	29	shall	shall	MD
homer-odyssey-850_15	185	30	find	find	VB
homer-odyssey-850_15	185	31	no	no	DT
homer-odyssey-850_15	185	32	lack	lack	NN
homer-odyssey-850_15	185	33	of	of	IN
homer-odyssey-850_15	185	34	hospitality	hospitality	NN
homer-odyssey-850_15	185	35	.	.	.
homer-odyssey-850_15	185	36	"	"	''
homer-odyssey-850_15	186	1	As	as	IN
homer-odyssey-850_15	186	2	he	-PRON-	PRP
homer-odyssey-850_15	186	3	spoke	speak	VBD
homer-odyssey-850_15	186	4	he	-PRON-	PRP
homer-odyssey-850_15	186	5	went	go	VBD
homer-odyssey-850_15	186	6	on	on	IN
homer-odyssey-850_15	186	7	board	board	NN
homer-odyssey-850_15	186	8	,	,	,
homer-odyssey-850_15	186	9	and	and	CC
homer-odyssey-850_15	186	10	bade	bade	VB
homer-odyssey-850_15	186	11	the	the	DT
homer-odyssey-850_15	186	12	others	other	NNS
homer-odyssey-850_15	186	13	do	do	VBP
homer-odyssey-850_15	186	14	so	so	RB
homer-odyssey-850_15	186	15	also	also	RB
homer-odyssey-850_15	186	16	and	and	CC
homer-odyssey-850_15	186	17	loose	loose	VB
homer-odyssey-850_15	186	18	the	the	DT
homer-odyssey-850_15	186	19	hawsers	hawser	NNS
homer-odyssey-850_15	186	20	,	,	,
homer-odyssey-850_15	186	21	so	so	CC
homer-odyssey-850_15	186	22	they	-PRON-	PRP
homer-odyssey-850_15	186	23	took	take	VBD
homer-odyssey-850_15	186	24	their	-PRON-	PRP$
homer-odyssey-850_15	186	25	places	place	NNS
homer-odyssey-850_15	186	26	in	in	IN
homer-odyssey-850_15	186	27	the	the	DT
homer-odyssey-850_15	186	28	ship	ship	NN
homer-odyssey-850_15	186	29	.	.	.
homer-odyssey-850_15	187	1	But	but	CC
homer-odyssey-850_15	187	2	Telemachus	telemachus	NNP
homer-odyssey-850_15	187	3	bound	bind	VBN
homer-odyssey-850_15	187	4	on	on	IN
homer-odyssey-850_15	187	5	his	-PRON-	PRP$
homer-odyssey-850_15	187	6	sandals	sandal	NNS
homer-odyssey-850_15	187	7	,	,	,
homer-odyssey-850_15	187	8	and	and	CC
homer-odyssey-850_15	187	9	took	take	VBD
homer-odyssey-850_15	187	10	a	a	DT
homer-odyssey-850_15	187	11	long	long	JJ
homer-odyssey-850_15	187	12	and	and	CC
homer-odyssey-850_15	187	13	doughty	doughty	JJ
homer-odyssey-850_15	187	14	spear	spear	NN
homer-odyssey-850_15	187	15	with	with	IN
homer-odyssey-850_15	187	16	a	a	DT
homer-odyssey-850_15	187	17	head	head	NN
homer-odyssey-850_15	187	18	of	of	IN
homer-odyssey-850_15	187	19	sharpened	sharpen	VBN
homer-odyssey-850_15	187	20	bronze	bronze	NN
homer-odyssey-850_15	187	21	from	from	IN
homer-odyssey-850_15	187	22	the	the	DT
homer-odyssey-850_15	187	23	deck	deck	NN
homer-odyssey-850_15	187	24	of	of	IN
homer-odyssey-850_15	187	25	the	the	DT
homer-odyssey-850_15	187	26	ship	ship	NN
homer-odyssey-850_15	187	27	.	.	.
homer-odyssey-850_15	188	1	Then	then	RB
homer-odyssey-850_15	188	2	they	-PRON-	PRP
homer-odyssey-850_15	188	3	loosed	loose	VBD
homer-odyssey-850_15	188	4	the	the	DT
homer-odyssey-850_15	188	5	hawsers	hawser	NNS
homer-odyssey-850_15	188	6	,	,	,
homer-odyssey-850_15	188	7	thrust	thrust	VBD
homer-odyssey-850_15	188	8	the	the	DT
homer-odyssey-850_15	188	9	ship	ship	NN
homer-odyssey-850_15	188	10	off	off	RP
homer-odyssey-850_15	188	11	from	from	IN
homer-odyssey-850_15	188	12	land	land	NN
homer-odyssey-850_15	188	13	,	,	,
homer-odyssey-850_15	188	14	and	and	CC
homer-odyssey-850_15	188	15	made	make	VBN
homer-odyssey-850_15	188	16	on	on	RP
homer-odyssey-850_15	188	17	towards	towards	IN
homer-odyssey-850_15	188	18	the	the	DT
homer-odyssey-850_15	188	19	city	city	NN
homer-odyssey-850_15	188	20	as	as	IN
homer-odyssey-850_15	188	21	they	-PRON-	PRP
homer-odyssey-850_15	188	22	had	have	VBD
homer-odyssey-850_15	188	23	been	be	VBN
homer-odyssey-850_15	188	24	told	tell	VBN
homer-odyssey-850_15	188	25	to	to	TO
homer-odyssey-850_15	188	26	do	do	VB
homer-odyssey-850_15	188	27	,	,	,
homer-odyssey-850_15	188	28	while	while	IN
homer-odyssey-850_15	188	29	Telemachus	telemachus	NNP
homer-odyssey-850_15	188	30	strode	strode	NN
homer-odyssey-850_15	188	31	on	on	IN
homer-odyssey-850_15	188	32	as	as	RB
homer-odyssey-850_15	188	33	fast	fast	RB
homer-odyssey-850_15	188	34	as	as	IN
homer-odyssey-850_15	188	35	he	-PRON-	PRP
homer-odyssey-850_15	188	36	could	could	MD
homer-odyssey-850_15	188	37	,	,	,
homer-odyssey-850_15	188	38	till	till	IN
homer-odyssey-850_15	188	39	he	-PRON-	PRP
homer-odyssey-850_15	188	40	reached	reach	VBD
homer-odyssey-850_15	188	41	the	the	DT
homer-odyssey-850_15	188	42	homestead	homestead	NN
homer-odyssey-850_15	188	43	where	where	WRB
homer-odyssey-850_15	188	44	his	-PRON-	PRP$
homer-odyssey-850_15	188	45	countless	countless	JJ
homer-odyssey-850_15	188	46	herds	herd	NNS
homer-odyssey-850_15	188	47	of	of	IN
homer-odyssey-850_15	188	48	swine	swine	NNS
homer-odyssey-850_15	188	49	were	be	VBD
homer-odyssey-850_15	188	50	feeding	feed	VBG
homer-odyssey-850_15	188	51	,	,	,
homer-odyssey-850_15	188	52	and	and	CC
homer-odyssey-850_15	188	53	where	where	WRB
homer-odyssey-850_15	188	54	dwelt	dwelt	VB
homer-odyssey-850_15	188	55	the	the	DT
homer-odyssey-850_15	188	56	excellent	excellent	JJ
homer-odyssey-850_15	188	57	swineherd	swineherd	NN
homer-odyssey-850_15	188	58	,	,	,
homer-odyssey-850_15	188	59	who	who	WP
homer-odyssey-850_15	188	60	was	be	VBD
homer-odyssey-850_15	188	61	so	so	RB
homer-odyssey-850_15	188	62	devoted	devoted	JJ
homer-odyssey-850_15	188	63	a	a	DT
homer-odyssey-850_15	188	64	servant	servant	NN
homer-odyssey-850_15	188	65	to	to	IN
homer-odyssey-850_15	188	66	his	-PRON-	PRP$
homer-odyssey-850_15	188	67	master	master	NN
homer-odyssey-850_15	188	68	.	.	.
