id	sid	tid	token	lemma	pos
homer-odyssey-850_17	1	1	TELEMACHUS	telemachus	NNP
homer-odyssey-850_17	1	2	AND	and	CC
homer-odyssey-850_17	1	3	HIS	his	PRP$
homer-odyssey-850_17	1	4	MOTHER	mother	NNP
homer-odyssey-850_17	1	5	MEET	meet	NNP
homer-odyssey-850_17	1	6	--	--	:
homer-odyssey-850_17	1	7	ULYSSES	ulysses	NNP
homer-odyssey-850_17	1	8	AND	and	CC
homer-odyssey-850_17	1	9	EUMAEUS	eumaeus	NNP
homer-odyssey-850_17	1	10	COME	come	VBP
homer-odyssey-850_17	1	11	DOWN	down	RP
homer-odyssey-850_17	1	12	TO	to	IN
homer-odyssey-850_17	1	13	THE	the	DT
homer-odyssey-850_17	1	14	TOWN	town	NNP
homer-odyssey-850_17	1	15	,	,	,
homer-odyssey-850_17	1	16	AND	and	CC
homer-odyssey-850_17	1	17	ULYSSES	ulysses	NNP
homer-odyssey-850_17	1	18	IS	be	VBZ
homer-odyssey-850_17	1	19	INSULTED	insult	VBN
homer-odyssey-850_17	1	20	BY	by	IN
homer-odyssey-850_17	1	21	MELANTHIUS	melanthius	NN
homer-odyssey-850_17	1	22	--	--	:
homer-odyssey-850_17	1	23	HE	he	PRP
homer-odyssey-850_17	1	24	IS	be	VBZ
homer-odyssey-850_17	1	25	RECOGNISED	recognise	VBN
homer-odyssey-850_17	1	26	BY	by	IN
homer-odyssey-850_17	1	27	THE	the	DT
homer-odyssey-850_17	1	28	DOG	dog	NNP
homer-odyssey-850_17	1	29	ARGOS	argos	NNP
homer-odyssey-850_17	1	30	--	--	:
homer-odyssey-850_17	1	31	HE	he	PRP
homer-odyssey-850_17	1	32	IS	be	VBZ
homer-odyssey-850_17	1	33	INSULTED	insulted	JJ
homer-odyssey-850_17	1	34	AND	and	CC
homer-odyssey-850_17	1	35	PRESENTLY	presently	NNS
homer-odyssey-850_17	1	36	STRUCK	strike	VBN
homer-odyssey-850_17	1	37	BY	by	IN
homer-odyssey-850_17	1	38	ANTINOUS	antinous	JJ
homer-odyssey-850_17	1	39	WITH	with	IN
homer-odyssey-850_17	1	40	A	a	DT
homer-odyssey-850_17	1	41	STOOL	stool	NNP
homer-odyssey-850_17	1	42	--	--	:
homer-odyssey-850_17	1	43	PENELOPE	penelope	NNP
homer-odyssey-850_17	1	44	DESIRES	desires	NNP
homer-odyssey-850_17	1	45	THAT	that	IN
homer-odyssey-850_17	1	46	HE	he	PRP
homer-odyssey-850_17	1	47	SHALL	shall	MD
homer-odyssey-850_17	1	48	BE	be	VB
homer-odyssey-850_17	1	49	SENT	send	VBN
homer-odyssey-850_17	1	50	TO	to	IN
homer-odyssey-850_17	1	51	HER	her	PRP
homer-odyssey-850_17	1	52	.	.	.
homer-odyssey-850_17	2	1	When	when	WRB
homer-odyssey-850_17	2	2	the	the	DT
homer-odyssey-850_17	2	3	child	child	NN
homer-odyssey-850_17	2	4	of	of	IN
homer-odyssey-850_17	2	5	morning	morning	NN
homer-odyssey-850_17	2	6	,	,	,
homer-odyssey-850_17	2	7	rosy-	rosy-	VBZ
homer-odyssey-850_17	2	8	fingered	finger	VBN
homer-odyssey-850_17	2	9	Dawn	dawn	NNP
homer-odyssey-850_17	2	10	,	,	,
homer-odyssey-850_17	2	11	appeared	appear	VBD
homer-odyssey-850_17	2	12	,	,	,
homer-odyssey-850_17	2	13	Telemachus	telemachus	NNP
homer-odyssey-850_17	2	14	bound	bind	VBN
homer-odyssey-850_17	2	15	on	on	IN
homer-odyssey-850_17	2	16	his	-PRON-	PRP$
homer-odyssey-850_17	2	17	sandals	sandal	NNS
homer-odyssey-850_17	2	18	and	and	CC
homer-odyssey-850_17	2	19	took	take	VBD
homer-odyssey-850_17	2	20	a	a	DT
homer-odyssey-850_17	2	21	strong	strong	JJ
homer-odyssey-850_17	2	22	spear	spear	NN
homer-odyssey-850_17	2	23	that	that	WDT
homer-odyssey-850_17	2	24	suited	suit	VBD
homer-odyssey-850_17	2	25	his	-PRON-	PRP$
homer-odyssey-850_17	2	26	hands	hand	NNS
homer-odyssey-850_17	2	27	,	,	,
homer-odyssey-850_17	2	28	for	for	IN
homer-odyssey-850_17	2	29	he	-PRON-	PRP
homer-odyssey-850_17	2	30	wanted	want	VBD
homer-odyssey-850_17	2	31	to	to	TO
homer-odyssey-850_17	2	32	go	go	VB
homer-odyssey-850_17	2	33	into	into	IN
homer-odyssey-850_17	2	34	the	the	DT
homer-odyssey-850_17	2	35	city	city	NN
homer-odyssey-850_17	2	36	.	.	.
homer-odyssey-850_17	2	37	"	"	''
homer-odyssey-850_17	3	1	Old	old	JJ
homer-odyssey-850_17	3	2	friend	friend	NN
homer-odyssey-850_17	3	3	,	,	,
homer-odyssey-850_17	3	4	"	"	''
homer-odyssey-850_17	3	5	said	say	VBD
homer-odyssey-850_17	3	6	he	-PRON-	PRP
homer-odyssey-850_17	3	7	to	to	IN
homer-odyssey-850_17	3	8	the	the	DT
homer-odyssey-850_17	3	9	swineherd	swineherd	NN
homer-odyssey-850_17	3	10	,	,	,
homer-odyssey-850_17	3	11	"	"	``
homer-odyssey-850_17	3	12	I	-PRON-	PRP
homer-odyssey-850_17	3	13	will	will	MD
homer-odyssey-850_17	3	14	now	now	RB
homer-odyssey-850_17	3	15	go	go	VB
homer-odyssey-850_17	3	16	to	to	IN
homer-odyssey-850_17	3	17	the	the	DT
homer-odyssey-850_17	3	18	town	town	NN
homer-odyssey-850_17	3	19	and	and	CC
homer-odyssey-850_17	3	20	show	show	VB
homer-odyssey-850_17	3	21	myself	-PRON-	PRP
homer-odyssey-850_17	3	22	to	to	IN
homer-odyssey-850_17	3	23	my	-PRON-	PRP$
homer-odyssey-850_17	3	24	mother	mother	NN
homer-odyssey-850_17	3	25	,	,	,
homer-odyssey-850_17	3	26	for	for	IN
homer-odyssey-850_17	3	27	she	-PRON-	PRP
homer-odyssey-850_17	3	28	will	will	MD
homer-odyssey-850_17	3	29	never	never	RB
homer-odyssey-850_17	3	30	leave	leave	VB
homer-odyssey-850_17	3	31	off	off	RP
homer-odyssey-850_17	3	32	grieving	grieve	VBG
homer-odyssey-850_17	3	33	till	till	IN
homer-odyssey-850_17	3	34	she	-PRON-	PRP
homer-odyssey-850_17	3	35	has	have	VBZ
homer-odyssey-850_17	3	36	seen	see	VBN
homer-odyssey-850_17	3	37	me	-PRON-	PRP
homer-odyssey-850_17	3	38	.	.	.
homer-odyssey-850_17	4	1	As	as	IN
homer-odyssey-850_17	4	2	for	for	IN
homer-odyssey-850_17	4	3	this	this	DT
homer-odyssey-850_17	4	4	unfortunate	unfortunate	JJ
homer-odyssey-850_17	4	5	stranger	stranger	NN
homer-odyssey-850_17	4	6	,	,	,
homer-odyssey-850_17	4	7	take	take	VB
homer-odyssey-850_17	4	8	him	-PRON-	PRP
homer-odyssey-850_17	4	9	to	to	IN
homer-odyssey-850_17	4	10	the	the	DT
homer-odyssey-850_17	4	11	town	town	NN
homer-odyssey-850_17	4	12	and	and	CC
homer-odyssey-850_17	4	13	let	let	VB
homer-odyssey-850_17	4	14	him	-PRON-	PRP
homer-odyssey-850_17	4	15	beg	beg	VB
homer-odyssey-850_17	4	16	there	there	RB
homer-odyssey-850_17	4	17	of	of	IN
homer-odyssey-850_17	4	18	any	any	DT
homer-odyssey-850_17	4	19	one	one	NN
homer-odyssey-850_17	4	20	who	who	WP
homer-odyssey-850_17	4	21	will	will	MD
homer-odyssey-850_17	4	22	give	give	VB
homer-odyssey-850_17	4	23	him	-PRON-	PRP
homer-odyssey-850_17	4	24	a	a	DT
homer-odyssey-850_17	4	25	drink	drink	NN
homer-odyssey-850_17	4	26	and	and	CC
homer-odyssey-850_17	4	27	a	a	DT
homer-odyssey-850_17	4	28	piece	piece	NN
homer-odyssey-850_17	4	29	of	of	IN
homer-odyssey-850_17	4	30	bread	bread	NN
homer-odyssey-850_17	4	31	.	.	.
homer-odyssey-850_17	5	1	I	-PRON-	PRP
homer-odyssey-850_17	5	2	have	have	VBP
homer-odyssey-850_17	5	3	trouble	trouble	NN
homer-odyssey-850_17	5	4	enough	enough	JJ
homer-odyssey-850_17	5	5	of	of	IN
homer-odyssey-850_17	5	6	my	-PRON-	PRP$
homer-odyssey-850_17	5	7	own	own	JJ
homer-odyssey-850_17	5	8	,	,	,
homer-odyssey-850_17	5	9	and	and	CC
homer-odyssey-850_17	5	10	can	can	MD
homer-odyssey-850_17	5	11	not	not	RB
homer-odyssey-850_17	5	12	be	be	VB
homer-odyssey-850_17	5	13	burdened	burden	VBN
homer-odyssey-850_17	5	14	with	with	IN
homer-odyssey-850_17	5	15	other	other	JJ
homer-odyssey-850_17	5	16	people	people	NNS
homer-odyssey-850_17	5	17	.	.	.
homer-odyssey-850_17	6	1	If	if	IN
homer-odyssey-850_17	6	2	this	this	DT
homer-odyssey-850_17	6	3	makes	make	VBZ
homer-odyssey-850_17	6	4	him	-PRON-	PRP
homer-odyssey-850_17	6	5	angry	angry	JJ
homer-odyssey-850_17	6	6	so	so	RB
homer-odyssey-850_17	6	7	much	much	RB
homer-odyssey-850_17	6	8	the	the	DT
homer-odyssey-850_17	6	9	worse	bad	JJR
homer-odyssey-850_17	6	10	for	for	IN
homer-odyssey-850_17	6	11	him	-PRON-	PRP
homer-odyssey-850_17	6	12	,	,	,
homer-odyssey-850_17	6	13	but	but	CC
homer-odyssey-850_17	6	14	I	-PRON-	PRP
homer-odyssey-850_17	6	15	like	like	VBP
homer-odyssey-850_17	6	16	to	to	TO
homer-odyssey-850_17	6	17	say	say	VB
homer-odyssey-850_17	6	18	what	what	WP
homer-odyssey-850_17	6	19	I	-PRON-	PRP
homer-odyssey-850_17	6	20	mean	mean	VBP
homer-odyssey-850_17	6	21	.	.	.
homer-odyssey-850_17	6	22	"	"	''
homer-odyssey-850_17	7	1	Then	then	RB
homer-odyssey-850_17	7	2	Ulysses	ulyss	NNS
homer-odyssey-850_17	7	3	said	say	VBD
homer-odyssey-850_17	7	4	,	,	,
homer-odyssey-850_17	7	5	"	"	``
homer-odyssey-850_17	7	6	Sir	sir	NNP
homer-odyssey-850_17	7	7	,	,	,
homer-odyssey-850_17	7	8	I	-PRON-	PRP
homer-odyssey-850_17	7	9	do	do	VBP
homer-odyssey-850_17	7	10	not	not	RB
homer-odyssey-850_17	7	11	want	want	VB
homer-odyssey-850_17	7	12	to	to	TO
homer-odyssey-850_17	7	13	stay	stay	VB
homer-odyssey-850_17	7	14	here	here	RB
homer-odyssey-850_17	7	15	;	;	:
homer-odyssey-850_17	7	16	a	a	DT
homer-odyssey-850_17	7	17	beggar	beggar	NN
homer-odyssey-850_17	7	18	can	can	MD
homer-odyssey-850_17	7	19	always	always	RB
homer-odyssey-850_17	7	20	do	do	VB
homer-odyssey-850_17	7	21	better	good	JJR
homer-odyssey-850_17	7	22	in	in	IN
homer-odyssey-850_17	7	23	town	town	NN
homer-odyssey-850_17	7	24	than	than	IN
homer-odyssey-850_17	7	25	country	country	NN
homer-odyssey-850_17	7	26	,	,	,
homer-odyssey-850_17	7	27	for	for	IN
homer-odyssey-850_17	7	28	any	any	DT
homer-odyssey-850_17	7	29	one	one	NN
homer-odyssey-850_17	7	30	who	who	WP
homer-odyssey-850_17	7	31	likes	like	VBZ
homer-odyssey-850_17	7	32	can	can	MD
homer-odyssey-850_17	7	33	give	give	VB
homer-odyssey-850_17	7	34	him	-PRON-	PRP
homer-odyssey-850_17	7	35	something	something	NN
homer-odyssey-850_17	7	36	.	.	.
homer-odyssey-850_17	8	1	I	-PRON-	PRP
homer-odyssey-850_17	8	2	am	be	VBP
homer-odyssey-850_17	8	3	too	too	RB
homer-odyssey-850_17	8	4	old	old	JJ
homer-odyssey-850_17	8	5	to	to	TO
homer-odyssey-850_17	8	6	care	care	VB
homer-odyssey-850_17	8	7	about	about	IN
homer-odyssey-850_17	8	8	remaining	remain	VBG
homer-odyssey-850_17	8	9	here	here	RB
homer-odyssey-850_17	8	10	at	at	IN
homer-odyssey-850_17	8	11	the	the	DT
homer-odyssey-850_17	8	12	beck	beck	NN
homer-odyssey-850_17	8	13	and	and	CC
homer-odyssey-850_17	8	14	call	call	NN
homer-odyssey-850_17	8	15	of	of	IN
homer-odyssey-850_17	8	16	a	a	DT
homer-odyssey-850_17	8	17	master	master	NN
homer-odyssey-850_17	8	18	.	.	.
homer-odyssey-850_17	9	1	Therefore	therefore	RB
homer-odyssey-850_17	9	2	let	let	VB
homer-odyssey-850_17	9	3	this	this	DT
homer-odyssey-850_17	9	4	man	man	NN
homer-odyssey-850_17	9	5	do	do	VB
homer-odyssey-850_17	9	6	as	as	IN
homer-odyssey-850_17	9	7	you	-PRON-	PRP
homer-odyssey-850_17	9	8	have	have	VBP
homer-odyssey-850_17	9	9	just	just	RB
homer-odyssey-850_17	9	10	told	tell	VBN
homer-odyssey-850_17	9	11	him	-PRON-	PRP
homer-odyssey-850_17	9	12	,	,	,
homer-odyssey-850_17	9	13	and	and	CC
homer-odyssey-850_17	9	14	take	take	VB
homer-odyssey-850_17	9	15	me	-PRON-	PRP
homer-odyssey-850_17	9	16	to	to	IN
homer-odyssey-850_17	9	17	the	the	DT
homer-odyssey-850_17	9	18	town	town	NN
homer-odyssey-850_17	9	19	as	as	RB
homer-odyssey-850_17	9	20	soon	soon	RB
homer-odyssey-850_17	9	21	as	as	IN
homer-odyssey-850_17	9	22	I	-PRON-	PRP
homer-odyssey-850_17	9	23	have	have	VBP
homer-odyssey-850_17	9	24	had	have	VBN
homer-odyssey-850_17	9	25	a	a	DT
homer-odyssey-850_17	9	26	warm	warm	NN
homer-odyssey-850_17	9	27	by	by	IN
homer-odyssey-850_17	9	28	the	the	DT
homer-odyssey-850_17	9	29	fire	fire	NN
homer-odyssey-850_17	9	30	,	,	,
homer-odyssey-850_17	9	31	and	and	CC
homer-odyssey-850_17	9	32	the	the	DT
homer-odyssey-850_17	9	33	day	day	NN
homer-odyssey-850_17	9	34	has	have	VBZ
homer-odyssey-850_17	9	35	got	get	VBN
homer-odyssey-850_17	9	36	a	a	DT
homer-odyssey-850_17	9	37	little	little	JJ
homer-odyssey-850_17	9	38	heat	heat	NN
homer-odyssey-850_17	9	39	in	in	IN
homer-odyssey-850_17	9	40	it	-PRON-	PRP
homer-odyssey-850_17	9	41	.	.	.
homer-odyssey-850_17	10	1	My	-PRON-	PRP$
homer-odyssey-850_17	10	2	clothes	clothe	NNS
homer-odyssey-850_17	10	3	are	be	VBP
homer-odyssey-850_17	10	4	wretchedly	wretchedly	RB
homer-odyssey-850_17	10	5	thin	thin	JJ
homer-odyssey-850_17	10	6	,	,	,
homer-odyssey-850_17	10	7	and	and	CC
homer-odyssey-850_17	10	8	this	this	DT
homer-odyssey-850_17	10	9	frosty	frosty	JJ
homer-odyssey-850_17	10	10	morning	morning	NN
homer-odyssey-850_17	10	11	I	-PRON-	PRP
homer-odyssey-850_17	10	12	shall	shall	MD
homer-odyssey-850_17	10	13	be	be	VB
homer-odyssey-850_17	10	14	perished	perish	VBN
homer-odyssey-850_17	10	15	with	with	IN
homer-odyssey-850_17	10	16	cold	cold	JJ
homer-odyssey-850_17	10	17	,	,	,
homer-odyssey-850_17	10	18	for	for	IN
homer-odyssey-850_17	10	19	you	-PRON-	PRP
homer-odyssey-850_17	10	20	say	say	VBP
homer-odyssey-850_17	10	21	the	the	DT
homer-odyssey-850_17	10	22	city	city	NN
homer-odyssey-850_17	10	23	is	be	VBZ
homer-odyssey-850_17	10	24	some	some	DT
homer-odyssey-850_17	10	25	way	way	NN
homer-odyssey-850_17	10	26	off	off	RP
homer-odyssey-850_17	10	27	.	.	.
homer-odyssey-850_17	10	28	"	"	''
homer-odyssey-850_17	11	1	On	on	IN
homer-odyssey-850_17	11	2	this	this	DT
homer-odyssey-850_17	11	3	Telemachus	telemachus	NNP
homer-odyssey-850_17	11	4	strode	stride	VBD
homer-odyssey-850_17	11	5	off	off	RP
homer-odyssey-850_17	11	6	through	through	IN
homer-odyssey-850_17	11	7	the	the	DT
homer-odyssey-850_17	11	8	yards	yard	NNS
homer-odyssey-850_17	11	9	,	,	,
homer-odyssey-850_17	11	10	brooding	brood	VBG
homer-odyssey-850_17	11	11	his	-PRON-	PRP$
homer-odyssey-850_17	11	12	revenge	revenge	NN
homer-odyssey-850_17	11	13	upon	upon	IN
homer-odyssey-850_17	11	14	the	the	DT
homer-odyssey-850_17	11	15	suitors	suitor	NNS
homer-odyssey-850_17	11	16	.	.	.
homer-odyssey-850_17	12	1	When	when	WRB
homer-odyssey-850_17	12	2	he	-PRON-	PRP
homer-odyssey-850_17	12	3	reached	reach	VBD
homer-odyssey-850_17	12	4	home	home	RB
homer-odyssey-850_17	12	5	he	-PRON-	PRP
homer-odyssey-850_17	12	6	stood	stand	VBD
homer-odyssey-850_17	12	7	his	-PRON-	PRP$
homer-odyssey-850_17	12	8	spear	spear	NN
homer-odyssey-850_17	12	9	against	against	IN
homer-odyssey-850_17	12	10	a	a	DT
homer-odyssey-850_17	12	11	bearing-	bearing-	JJ
homer-odyssey-850_17	12	12	post	post	NN
homer-odyssey-850_17	12	13	of	of	IN
homer-odyssey-850_17	12	14	the	the	DT
homer-odyssey-850_17	12	15	cloister	cloister	NN
homer-odyssey-850_17	12	16	,	,	,
homer-odyssey-850_17	12	17	crossed	cross	VBD
homer-odyssey-850_17	12	18	the	the	DT
homer-odyssey-850_17	12	19	stone	stone	NN
homer-odyssey-850_17	12	20	floor	floor	NN
homer-odyssey-850_17	12	21	of	of	IN
homer-odyssey-850_17	12	22	the	the	DT
homer-odyssey-850_17	12	23	cloister	cloister	NN
homer-odyssey-850_17	12	24	itself	-PRON-	PRP
homer-odyssey-850_17	12	25	,	,	,
homer-odyssey-850_17	12	26	and	and	CC
homer-odyssey-850_17	12	27	went	go	VBD
homer-odyssey-850_17	12	28	inside	inside	RB
homer-odyssey-850_17	12	29	.	.	.
homer-odyssey-850_17	13	1	Nurse	nurse	NNP
homer-odyssey-850_17	13	2	Euryclea	euryclea	NNP
homer-odyssey-850_17	13	3	saw	see	VBD
homer-odyssey-850_17	13	4	him	-PRON-	PRP
homer-odyssey-850_17	13	5	long	long	RB
homer-odyssey-850_17	13	6	before	before	IN
homer-odyssey-850_17	13	7	any	any	DT
homer-odyssey-850_17	13	8	one	one	NN
homer-odyssey-850_17	13	9	else	else	RB
homer-odyssey-850_17	13	10	did	do	VBD
homer-odyssey-850_17	13	11	.	.	.
homer-odyssey-850_17	14	1	She	-PRON-	PRP
homer-odyssey-850_17	14	2	was	be	VBD
homer-odyssey-850_17	14	3	putting	put	VBG
homer-odyssey-850_17	14	4	the	the	DT
homer-odyssey-850_17	14	5	fleeces	fleece	NNS
homer-odyssey-850_17	14	6	on	on	IN
homer-odyssey-850_17	14	7	to	to	IN
homer-odyssey-850_17	14	8	the	the	DT
homer-odyssey-850_17	14	9	seats	seat	NNS
homer-odyssey-850_17	14	10	,	,	,
homer-odyssey-850_17	14	11	and	and	CC
homer-odyssey-850_17	14	12	she	-PRON-	PRP
homer-odyssey-850_17	14	13	burst	burst	VBD
homer-odyssey-850_17	14	14	out	out	RP
homer-odyssey-850_17	14	15	crying	cry	VBG
homer-odyssey-850_17	14	16	as	as	IN
homer-odyssey-850_17	14	17	she	-PRON-	PRP
homer-odyssey-850_17	14	18	ran	run	VBD
homer-odyssey-850_17	14	19	up	up	RP
homer-odyssey-850_17	14	20	to	to	IN
homer-odyssey-850_17	14	21	him	-PRON-	PRP
homer-odyssey-850_17	14	22	;	;	:
homer-odyssey-850_17	14	23	all	all	PDT
homer-odyssey-850_17	14	24	the	the	DT
homer-odyssey-850_17	14	25	other	other	JJ
homer-odyssey-850_17	14	26	maids	maid	NNS
homer-odyssey-850_17	14	27	came	come	VBD
homer-odyssey-850_17	14	28	up	up	RP
homer-odyssey-850_17	14	29	too	too	RB
homer-odyssey-850_17	14	30	,	,	,
homer-odyssey-850_17	14	31	and	and	CC
homer-odyssey-850_17	14	32	covered	cover	VBD
homer-odyssey-850_17	14	33	his	-PRON-	PRP$
homer-odyssey-850_17	14	34	head	head	NN
homer-odyssey-850_17	14	35	and	and	CC
homer-odyssey-850_17	14	36	shoulders	shoulder	NNS
homer-odyssey-850_17	14	37	with	with	IN
homer-odyssey-850_17	14	38	their	-PRON-	PRP$
homer-odyssey-850_17	14	39	kisses	kiss	NNS
homer-odyssey-850_17	14	40	.	.	.
homer-odyssey-850_17	15	1	Penelope	penelope	NNP
homer-odyssey-850_17	15	2	came	come	VBD
homer-odyssey-850_17	15	3	out	out	IN
homer-odyssey-850_17	15	4	of	of	IN
homer-odyssey-850_17	15	5	her	-PRON-	PRP$
homer-odyssey-850_17	15	6	room	room	NN
homer-odyssey-850_17	15	7	looking	look	VBG
homer-odyssey-850_17	15	8	like	like	IN
homer-odyssey-850_17	15	9	Diana	diana	NNP
homer-odyssey-850_17	15	10	or	or	CC
homer-odyssey-850_17	15	11	Venus	venus	NNP
homer-odyssey-850_17	15	12	,	,	,
homer-odyssey-850_17	15	13	and	and	CC
homer-odyssey-850_17	15	14	wept	weep	VBD
homer-odyssey-850_17	15	15	as	as	IN
homer-odyssey-850_17	15	16	she	-PRON-	PRP
homer-odyssey-850_17	15	17	flung	fling	VBD
homer-odyssey-850_17	15	18	her	-PRON-	PRP$
homer-odyssey-850_17	15	19	arms	arm	NNS
homer-odyssey-850_17	15	20	about	about	IN
homer-odyssey-850_17	15	21	her	-PRON-	PRP$
homer-odyssey-850_17	15	22	son	son	NN
homer-odyssey-850_17	15	23	.	.	.
homer-odyssey-850_17	16	1	She	-PRON-	PRP
homer-odyssey-850_17	16	2	kissed	kiss	VBD
homer-odyssey-850_17	16	3	his	-PRON-	PRP$
homer-odyssey-850_17	16	4	forehead	forehead	NN
homer-odyssey-850_17	16	5	and	and	CC
homer-odyssey-850_17	16	6	both	both	DT
homer-odyssey-850_17	16	7	his	-PRON-	PRP$
homer-odyssey-850_17	16	8	beautiful	beautiful	JJ
homer-odyssey-850_17	16	9	eyes	eye	NNS
homer-odyssey-850_17	16	10	,	,	,
homer-odyssey-850_17	16	11	"	"	``
homer-odyssey-850_17	16	12	Light	light	NN
homer-odyssey-850_17	16	13	of	of	IN
homer-odyssey-850_17	16	14	my	-PRON-	PRP$
homer-odyssey-850_17	16	15	eyes	eye	NNS
homer-odyssey-850_17	16	16	,	,	,
homer-odyssey-850_17	16	17	"	"	''
homer-odyssey-850_17	16	18	she	-PRON-	PRP
homer-odyssey-850_17	16	19	cried	cry	VBD
homer-odyssey-850_17	16	20	as	as	IN
homer-odyssey-850_17	16	21	she	-PRON-	PRP
homer-odyssey-850_17	16	22	spoke	speak	VBD
homer-odyssey-850_17	16	23	fondly	fondly	RB
homer-odyssey-850_17	16	24	to	to	IN
homer-odyssey-850_17	16	25	him	-PRON-	PRP
homer-odyssey-850_17	16	26	,	,	,
homer-odyssey-850_17	16	27	"	"	``
homer-odyssey-850_17	16	28	so	so	RB
homer-odyssey-850_17	16	29	you	-PRON-	PRP
homer-odyssey-850_17	16	30	are	be	VBP
homer-odyssey-850_17	16	31	come	come	VBN
homer-odyssey-850_17	16	32	home	home	RB
homer-odyssey-850_17	16	33	again	again	RB
homer-odyssey-850_17	16	34	;	;	:
homer-odyssey-850_17	16	35	I	-PRON-	PRP
homer-odyssey-850_17	16	36	made	make	VBD
homer-odyssey-850_17	16	37	sure	sure	JJ
homer-odyssey-850_17	16	38	I	-PRON-	PRP
homer-odyssey-850_17	16	39	was	be	VBD
homer-odyssey-850_17	16	40	never	never	RB
homer-odyssey-850_17	16	41	going	go	VBG
homer-odyssey-850_17	16	42	to	to	TO
homer-odyssey-850_17	16	43	see	see	VB
homer-odyssey-850_17	16	44	you	-PRON-	PRP
homer-odyssey-850_17	16	45	any	any	DT
homer-odyssey-850_17	16	46	more	more	RBR
homer-odyssey-850_17	16	47	.	.	.
homer-odyssey-850_17	17	1	To	to	TO
homer-odyssey-850_17	17	2	think	think	VB
homer-odyssey-850_17	17	3	of	of	IN
homer-odyssey-850_17	17	4	your	-PRON-	PRP$
homer-odyssey-850_17	17	5	having	have	VBG
homer-odyssey-850_17	17	6	gone	go	VBN
homer-odyssey-850_17	17	7	off	off	RP
homer-odyssey-850_17	17	8	to	to	IN
homer-odyssey-850_17	17	9	Pylos	pylos	NNP
homer-odyssey-850_17	17	10	without	without	IN
homer-odyssey-850_17	17	11	saying	say	VBG
homer-odyssey-850_17	17	12	anything	anything	NN
homer-odyssey-850_17	17	13	about	about	IN
homer-odyssey-850_17	17	14	it	-PRON-	PRP
homer-odyssey-850_17	17	15	or	or	CC
homer-odyssey-850_17	17	16	obtaining	obtain	VBG
homer-odyssey-850_17	17	17	my	-PRON-	PRP$
homer-odyssey-850_17	17	18	consent	consent	NN
homer-odyssey-850_17	17	19	.	.	.
homer-odyssey-850_17	18	1	But	but	CC
homer-odyssey-850_17	18	2	come	come	VB
homer-odyssey-850_17	18	3	,	,	,
homer-odyssey-850_17	18	4	tell	tell	VB
homer-odyssey-850_17	18	5	me	-PRON-	PRP
homer-odyssey-850_17	18	6	what	what	WP
homer-odyssey-850_17	18	7	you	-PRON-	PRP
homer-odyssey-850_17	18	8	saw	see	VBD
homer-odyssey-850_17	18	9	.	.	.
homer-odyssey-850_17	18	10	"	"	''
homer-odyssey-850_17	19	1	"	"	``
homer-odyssey-850_17	19	2	Do	do	VBP
homer-odyssey-850_17	19	3	not	not	RB
homer-odyssey-850_17	19	4	scold	scold	VB
homer-odyssey-850_17	19	5	me	-PRON-	PRP
homer-odyssey-850_17	19	6	,	,	,
homer-odyssey-850_17	19	7	mother	mother	NN
homer-odyssey-850_17	19	8	,	,	,
homer-odyssey-850_17	19	9	"	"	''
homer-odyssey-850_17	19	10	answered	answer	VBD
homer-odyssey-850_17	19	11	Telemachus	telemachus	NN
homer-odyssey-850_17	19	12	,	,	,
homer-odyssey-850_17	19	13	"	"	''
homer-odyssey-850_17	19	14	nor	nor	CC
homer-odyssey-850_17	19	15	vex	vex	VB
homer-odyssey-850_17	19	16	me	-PRON-	PRP
homer-odyssey-850_17	19	17	,	,	,
homer-odyssey-850_17	19	18	seeing	see	VBG
homer-odyssey-850_17	19	19	what	what	WP
homer-odyssey-850_17	19	20	a	a	DT
homer-odyssey-850_17	19	21	narrow	narrow	JJ
homer-odyssey-850_17	19	22	escape	escape	NN
homer-odyssey-850_17	19	23	I	-PRON-	PRP
homer-odyssey-850_17	19	24	have	have	VBP
homer-odyssey-850_17	19	25	had	have	VBN
homer-odyssey-850_17	19	26	,	,	,
homer-odyssey-850_17	19	27	but	but	CC
homer-odyssey-850_17	19	28	wash	wash	VB
homer-odyssey-850_17	19	29	your	-PRON-	PRP$
homer-odyssey-850_17	19	30	face	face	NN
homer-odyssey-850_17	19	31	,	,	,
homer-odyssey-850_17	19	32	change	change	VB
homer-odyssey-850_17	19	33	your	-PRON-	PRP$
homer-odyssey-850_17	19	34	dress	dress	NN
homer-odyssey-850_17	19	35	,	,	,
homer-odyssey-850_17	19	36	go	go	VB
homer-odyssey-850_17	19	37	upstairs	upstairs	RB
homer-odyssey-850_17	19	38	with	with	IN
homer-odyssey-850_17	19	39	your	-PRON-	PRP$
homer-odyssey-850_17	19	40	maids	maid	NNS
homer-odyssey-850_17	19	41	,	,	,
homer-odyssey-850_17	19	42	and	and	CC
homer-odyssey-850_17	19	43	promise	promise	VB
homer-odyssey-850_17	19	44	full	full	JJ
homer-odyssey-850_17	19	45	and	and	CC
homer-odyssey-850_17	19	46	sufficient	sufficient	JJ
homer-odyssey-850_17	19	47	hecatombs	hecatomb	NNS
homer-odyssey-850_17	19	48	to	to	IN
homer-odyssey-850_17	19	49	all	all	PDT
homer-odyssey-850_17	19	50	the	the	DT
homer-odyssey-850_17	19	51	gods	god	NNS
homer-odyssey-850_17	19	52	if	if	IN
homer-odyssey-850_17	19	53	Jove	jove	NNP
homer-odyssey-850_17	19	54	will	will	MD
homer-odyssey-850_17	19	55	only	only	RB
homer-odyssey-850_17	19	56	grant	grant	VB
homer-odyssey-850_17	19	57	us	-PRON-	PRP
homer-odyssey-850_17	19	58	our	-PRON-	PRP$
homer-odyssey-850_17	19	59	revenge	revenge	NN
homer-odyssey-850_17	19	60	upon	upon	IN
homer-odyssey-850_17	19	61	the	the	DT
homer-odyssey-850_17	19	62	suitors	suitor	NNS
homer-odyssey-850_17	19	63	.	.	.
homer-odyssey-850_17	20	1	I	-PRON-	PRP
homer-odyssey-850_17	20	2	must	must	MD
homer-odyssey-850_17	20	3	now	now	RB
homer-odyssey-850_17	20	4	go	go	VB
homer-odyssey-850_17	20	5	to	to	IN
homer-odyssey-850_17	20	6	the	the	DT
homer-odyssey-850_17	20	7	place	place	NN
homer-odyssey-850_17	20	8	of	of	IN
homer-odyssey-850_17	20	9	assembly	assembly	NN
homer-odyssey-850_17	20	10	to	to	TO
homer-odyssey-850_17	20	11	invite	invite	VB
homer-odyssey-850_17	20	12	a	a	DT
homer-odyssey-850_17	20	13	stranger	stranger	NN
homer-odyssey-850_17	20	14	who	who	WP
homer-odyssey-850_17	20	15	has	have	VBZ
homer-odyssey-850_17	20	16	come	come	VBN
homer-odyssey-850_17	20	17	back	back	RB
homer-odyssey-850_17	20	18	with	with	IN
homer-odyssey-850_17	20	19	me	-PRON-	PRP
homer-odyssey-850_17	20	20	from	from	IN
homer-odyssey-850_17	20	21	Pylos	pylos	NNP
homer-odyssey-850_17	20	22	.	.	.
homer-odyssey-850_17	21	1	I	-PRON-	PRP
homer-odyssey-850_17	21	2	sent	send	VBD
homer-odyssey-850_17	21	3	him	-PRON-	PRP
homer-odyssey-850_17	21	4	on	on	RP
homer-odyssey-850_17	21	5	with	with	IN
homer-odyssey-850_17	21	6	my	-PRON-	PRP$
homer-odyssey-850_17	21	7	crew	crew	NN
homer-odyssey-850_17	21	8	,	,	,
homer-odyssey-850_17	21	9	and	and	CC
homer-odyssey-850_17	21	10	told	tell	VBD
homer-odyssey-850_17	21	11	Piraeus	piraeus	NNP
homer-odyssey-850_17	21	12	to	to	TO
homer-odyssey-850_17	21	13	take	take	VB
homer-odyssey-850_17	21	14	him	-PRON-	PRP
homer-odyssey-850_17	21	15	home	home	RB
homer-odyssey-850_17	21	16	and	and	CC
homer-odyssey-850_17	21	17	look	look	VB
homer-odyssey-850_17	21	18	after	after	IN
homer-odyssey-850_17	21	19	him	-PRON-	PRP
homer-odyssey-850_17	21	20	till	till	IN
homer-odyssey-850_17	21	21	I	-PRON-	PRP
homer-odyssey-850_17	21	22	could	could	MD
homer-odyssey-850_17	21	23	come	come	VB
homer-odyssey-850_17	21	24	for	for	IN
homer-odyssey-850_17	21	25	him	-PRON-	PRP
homer-odyssey-850_17	21	26	myself	-PRON-	PRP
homer-odyssey-850_17	21	27	.	.	.
homer-odyssey-850_17	21	28	"	"	''
homer-odyssey-850_17	22	1	She	-PRON-	PRP
homer-odyssey-850_17	22	2	heeded	heed	VBD
homer-odyssey-850_17	22	3	her	-PRON-	PRP$
homer-odyssey-850_17	22	4	son	son	NN
homer-odyssey-850_17	22	5	's	's	POS
homer-odyssey-850_17	22	6	words	word	NNS
homer-odyssey-850_17	22	7	,	,	,
homer-odyssey-850_17	22	8	washed	wash	VBD
homer-odyssey-850_17	22	9	her	-PRON-	PRP$
homer-odyssey-850_17	22	10	face	face	NN
homer-odyssey-850_17	22	11	,	,	,
homer-odyssey-850_17	22	12	changed	change	VBD
homer-odyssey-850_17	22	13	her	-PRON-	PRP$
homer-odyssey-850_17	22	14	dress	dress	NN
homer-odyssey-850_17	22	15	,	,	,
homer-odyssey-850_17	22	16	and	and	CC
homer-odyssey-850_17	22	17	vowed	vow	VBD
homer-odyssey-850_17	22	18	full	full	JJ
homer-odyssey-850_17	22	19	and	and	CC
homer-odyssey-850_17	22	20	sufficient	sufficient	JJ
homer-odyssey-850_17	22	21	hecatombs	hecatomb	NNS
homer-odyssey-850_17	22	22	to	to	IN
homer-odyssey-850_17	22	23	all	all	PDT
homer-odyssey-850_17	22	24	the	the	DT
homer-odyssey-850_17	22	25	gods	god	NNS
homer-odyssey-850_17	22	26	if	if	IN
homer-odyssey-850_17	22	27	they	-PRON-	PRP
homer-odyssey-850_17	22	28	would	would	MD
homer-odyssey-850_17	22	29	only	only	RB
homer-odyssey-850_17	22	30	vouchsafe	vouchsafe	VB
homer-odyssey-850_17	22	31	her	-PRON-	PRP$
homer-odyssey-850_17	22	32	revenge	revenge	NN
homer-odyssey-850_17	22	33	upon	upon	IN
homer-odyssey-850_17	22	34	the	the	DT
homer-odyssey-850_17	22	35	suitors	suitor	NNS
homer-odyssey-850_17	22	36	.	.	.
homer-odyssey-850_17	23	1	Telemachus	telemachus	NNP
homer-odyssey-850_17	23	2	went	go	VBD
homer-odyssey-850_17	23	3	through	through	RB
homer-odyssey-850_17	23	4	,	,	,
homer-odyssey-850_17	23	5	and	and	CC
homer-odyssey-850_17	23	6	out	out	IN
homer-odyssey-850_17	23	7	of	of	IN
homer-odyssey-850_17	23	8	,	,	,
homer-odyssey-850_17	23	9	the	the	DT
homer-odyssey-850_17	23	10	cloisters	cloister	NNS
homer-odyssey-850_17	23	11	spear	spear	NN
homer-odyssey-850_17	23	12	in	in	IN
homer-odyssey-850_17	23	13	hand--	hand--	NN
homer-odyssey-850_17	23	14	not	not	RB
homer-odyssey-850_17	23	15	alone	alone	RB
homer-odyssey-850_17	23	16	,	,	,
homer-odyssey-850_17	23	17	for	for	IN
homer-odyssey-850_17	23	18	his	-PRON-	PRP$
homer-odyssey-850_17	23	19	two	two	CD
homer-odyssey-850_17	23	20	fleet	fleet	NN
homer-odyssey-850_17	23	21	dogs	dog	NNS
homer-odyssey-850_17	23	22	went	go	VBD
homer-odyssey-850_17	23	23	with	with	IN
homer-odyssey-850_17	23	24	him	-PRON-	PRP
homer-odyssey-850_17	23	25	.	.	.
homer-odyssey-850_17	24	1	Minerva	minerva	NNP
homer-odyssey-850_17	24	2	endowed	endow	VBD
homer-odyssey-850_17	24	3	him	-PRON-	PRP
homer-odyssey-850_17	24	4	with	with	IN
homer-odyssey-850_17	24	5	a	a	DT
homer-odyssey-850_17	24	6	presence	presence	NN
homer-odyssey-850_17	24	7	of	of	IN
homer-odyssey-850_17	24	8	such	such	JJ
homer-odyssey-850_17	24	9	divine	divine	JJ
homer-odyssey-850_17	24	10	comeliness	comeliness	NN
homer-odyssey-850_17	24	11	that	that	IN
homer-odyssey-850_17	24	12	all	all	DT
homer-odyssey-850_17	24	13	marvelled	marvel	VBD
homer-odyssey-850_17	24	14	at	at	IN
homer-odyssey-850_17	24	15	him	-PRON-	PRP
homer-odyssey-850_17	24	16	as	as	IN
homer-odyssey-850_17	24	17	he	-PRON-	PRP
homer-odyssey-850_17	24	18	went	go	VBD
homer-odyssey-850_17	24	19	by	by	RB
homer-odyssey-850_17	24	20	,	,	,
homer-odyssey-850_17	24	21	and	and	CC
homer-odyssey-850_17	24	22	the	the	DT
homer-odyssey-850_17	24	23	suitors	suitor	NNS
homer-odyssey-850_17	24	24	gathered	gather	VBD
homer-odyssey-850_17	24	25	round	round	IN
homer-odyssey-850_17	24	26	him	-PRON-	PRP
homer-odyssey-850_17	24	27	with	with	IN
homer-odyssey-850_17	24	28	fair	fair	JJ
homer-odyssey-850_17	24	29	words	word	NNS
homer-odyssey-850_17	24	30	in	in	IN
homer-odyssey-850_17	24	31	their	-PRON-	PRP$
homer-odyssey-850_17	24	32	mouths	mouth	NNS
homer-odyssey-850_17	24	33	and	and	CC
homer-odyssey-850_17	24	34	malice	malice	NN
homer-odyssey-850_17	24	35	in	in	IN
homer-odyssey-850_17	24	36	their	-PRON-	PRP$
homer-odyssey-850_17	24	37	hearts	heart	NNS
homer-odyssey-850_17	24	38	;	;	:
homer-odyssey-850_17	24	39	but	but	CC
homer-odyssey-850_17	24	40	he	-PRON-	PRP
homer-odyssey-850_17	24	41	avoided	avoid	VBD
homer-odyssey-850_17	24	42	them	-PRON-	PRP
homer-odyssey-850_17	24	43	,	,	,
homer-odyssey-850_17	24	44	and	and	CC
homer-odyssey-850_17	24	45	went	go	VBD
homer-odyssey-850_17	24	46	to	to	TO
homer-odyssey-850_17	24	47	sit	sit	VB
homer-odyssey-850_17	24	48	with	with	IN
homer-odyssey-850_17	24	49	Mentor	mentor	NNP
homer-odyssey-850_17	24	50	,	,	,
homer-odyssey-850_17	24	51	Antiphus	antiphus	NNP
homer-odyssey-850_17	24	52	,	,	,
homer-odyssey-850_17	24	53	and	and	CC
homer-odyssey-850_17	24	54	Halitherses	halithers	NNS
homer-odyssey-850_17	24	55	,	,	,
homer-odyssey-850_17	24	56	old	old	JJ
homer-odyssey-850_17	24	57	friends	friend	NNS
homer-odyssey-850_17	24	58	of	of	IN
homer-odyssey-850_17	24	59	his	-PRON-	PRP$
homer-odyssey-850_17	24	60	father	father	NN
homer-odyssey-850_17	24	61	's	's	POS
homer-odyssey-850_17	24	62	house	house	NN
homer-odyssey-850_17	24	63	,	,	,
homer-odyssey-850_17	24	64	and	and	CC
homer-odyssey-850_17	24	65	they	-PRON-	PRP
homer-odyssey-850_17	24	66	made	make	VBD
homer-odyssey-850_17	24	67	him	-PRON-	PRP
homer-odyssey-850_17	24	68	tell	tell	VB
homer-odyssey-850_17	24	69	them	-PRON-	PRP
homer-odyssey-850_17	24	70	all	all	DT
homer-odyssey-850_17	24	71	that	that	WDT
homer-odyssey-850_17	24	72	had	have	VBD
homer-odyssey-850_17	24	73	happened	happen	VBN
homer-odyssey-850_17	24	74	to	to	IN
homer-odyssey-850_17	24	75	him	-PRON-	PRP
homer-odyssey-850_17	24	76	.	.	.
homer-odyssey-850_17	25	1	Then	then	RB
homer-odyssey-850_17	25	2	Piraeus	piraeus	NNP
homer-odyssey-850_17	25	3	came	come	VBD
homer-odyssey-850_17	25	4	up	up	RP
homer-odyssey-850_17	25	5	with	with	IN
homer-odyssey-850_17	25	6	Theoclymenus	theoclymenus	NNP
homer-odyssey-850_17	25	7	,	,	,
homer-odyssey-850_17	25	8	whom	whom	WP
homer-odyssey-850_17	25	9	he	-PRON-	PRP
homer-odyssey-850_17	25	10	had	have	VBD
homer-odyssey-850_17	25	11	escorted	escort	VBN
homer-odyssey-850_17	25	12	through	through	IN
homer-odyssey-850_17	25	13	the	the	DT
homer-odyssey-850_17	25	14	town	town	NN
homer-odyssey-850_17	25	15	to	to	IN
homer-odyssey-850_17	25	16	the	the	DT
homer-odyssey-850_17	25	17	place	place	NN
homer-odyssey-850_17	25	18	of	of	IN
homer-odyssey-850_17	25	19	assembly	assembly	NN
homer-odyssey-850_17	25	20	,	,	,
homer-odyssey-850_17	25	21	whereon	whereon	NN
homer-odyssey-850_17	25	22	Telemachus	telemachus	NNP
homer-odyssey-850_17	25	23	at	at	IN
homer-odyssey-850_17	25	24	once	once	RB
homer-odyssey-850_17	25	25	joined	join	VBD
homer-odyssey-850_17	25	26	them	-PRON-	PRP
homer-odyssey-850_17	25	27	.	.	.
homer-odyssey-850_17	26	1	Piraeus	piraeus	NNP
homer-odyssey-850_17	26	2	was	be	VBD
homer-odyssey-850_17	26	3	first	first	JJ
homer-odyssey-850_17	26	4	to	to	TO
homer-odyssey-850_17	26	5	speak	speak	VB
homer-odyssey-850_17	26	6	:	:	:
homer-odyssey-850_17	26	7	"	"	``
homer-odyssey-850_17	26	8	Telemachus	telemachus	NN
homer-odyssey-850_17	26	9	,	,	,
homer-odyssey-850_17	26	10	"	"	''
homer-odyssey-850_17	26	11	said	say	VBD
homer-odyssey-850_17	26	12	he	-PRON-	PRP
homer-odyssey-850_17	26	13	,	,	,
homer-odyssey-850_17	26	14	"	"	``
homer-odyssey-850_17	26	15	I	-PRON-	PRP
homer-odyssey-850_17	26	16	wish	wish	VBP
homer-odyssey-850_17	26	17	you	-PRON-	PRP
homer-odyssey-850_17	26	18	would	would	MD
homer-odyssey-850_17	26	19	send	send	VB
homer-odyssey-850_17	26	20	some	some	DT
homer-odyssey-850_17	26	21	of	of	IN
homer-odyssey-850_17	26	22	your	-PRON-	PRP$
homer-odyssey-850_17	26	23	women	woman	NNS
homer-odyssey-850_17	26	24	to	to	IN
homer-odyssey-850_17	26	25	my	-PRON-	PRP$
homer-odyssey-850_17	26	26	house	house	NN
homer-odyssey-850_17	26	27	to	to	TO
homer-odyssey-850_17	26	28	take	take	VB
homer-odyssey-850_17	26	29	away	away	RB
homer-odyssey-850_17	26	30	the	the	DT
homer-odyssey-850_17	26	31	presents	present	NNS
homer-odyssey-850_17	26	32	Menelaus	menelaus	NNP
homer-odyssey-850_17	26	33	gave	give	VBD
homer-odyssey-850_17	26	34	you	-PRON-	PRP
homer-odyssey-850_17	26	35	.	.	.
homer-odyssey-850_17	26	36	"	"	''
homer-odyssey-850_17	27	1	"	"	``
homer-odyssey-850_17	27	2	We	-PRON-	PRP
homer-odyssey-850_17	27	3	do	do	VBP
homer-odyssey-850_17	27	4	not	not	RB
homer-odyssey-850_17	27	5	know	know	VB
homer-odyssey-850_17	27	6	,	,	,
homer-odyssey-850_17	27	7	Piraeus	piraeus	NNP
homer-odyssey-850_17	27	8	,	,	,
homer-odyssey-850_17	27	9	"	"	''
homer-odyssey-850_17	27	10	answered	answer	VBD
homer-odyssey-850_17	27	11	Telemachus	telemachus	NN
homer-odyssey-850_17	27	12	,	,	,
homer-odyssey-850_17	27	13	"	"	''
homer-odyssey-850_17	27	14	what	what	WP
homer-odyssey-850_17	27	15	may	may	MD
homer-odyssey-850_17	27	16	happen	happen	VB
homer-odyssey-850_17	27	17	.	.	.
homer-odyssey-850_17	28	1	If	if	IN
homer-odyssey-850_17	28	2	the	the	DT
homer-odyssey-850_17	28	3	suitors	suitor	NNS
homer-odyssey-850_17	28	4	kill	kill	VBP
homer-odyssey-850_17	28	5	me	-PRON-	PRP
homer-odyssey-850_17	28	6	in	in	IN
homer-odyssey-850_17	28	7	my	-PRON-	PRP$
homer-odyssey-850_17	28	8	own	own	JJ
homer-odyssey-850_17	28	9	house	house	NN
homer-odyssey-850_17	28	10	and	and	CC
homer-odyssey-850_17	28	11	divide	divide	VB
homer-odyssey-850_17	28	12	my	-PRON-	PRP$
homer-odyssey-850_17	28	13	property	property	NN
homer-odyssey-850_17	28	14	among	among	IN
homer-odyssey-850_17	28	15	them	-PRON-	PRP
homer-odyssey-850_17	28	16	,	,	,
homer-odyssey-850_17	28	17	I	-PRON-	PRP
homer-odyssey-850_17	28	18	would	would	MD
homer-odyssey-850_17	28	19	rather	rather	RB
homer-odyssey-850_17	28	20	you	-PRON-	PRP
homer-odyssey-850_17	28	21	had	have	VBD
homer-odyssey-850_17	28	22	the	the	DT
homer-odyssey-850_17	28	23	presents	present	NNS
homer-odyssey-850_17	28	24	than	than	IN
homer-odyssey-850_17	28	25	that	that	DT
homer-odyssey-850_17	28	26	any	any	DT
homer-odyssey-850_17	28	27	of	of	IN
homer-odyssey-850_17	28	28	those	those	DT
homer-odyssey-850_17	28	29	people	people	NNS
homer-odyssey-850_17	28	30	should	should	MD
homer-odyssey-850_17	28	31	get	get	VB
homer-odyssey-850_17	28	32	hold	hold	NN
homer-odyssey-850_17	28	33	of	of	IN
homer-odyssey-850_17	28	34	them	-PRON-	PRP
homer-odyssey-850_17	28	35	.	.	.
homer-odyssey-850_17	29	1	If	if	IN
homer-odyssey-850_17	29	2	on	on	IN
homer-odyssey-850_17	29	3	the	the	DT
homer-odyssey-850_17	29	4	other	other	JJ
homer-odyssey-850_17	29	5	hand	hand	NN
homer-odyssey-850_17	29	6	I	-PRON-	PRP
homer-odyssey-850_17	29	7	managed	manage	VBD
homer-odyssey-850_17	29	8	to	to	TO
homer-odyssey-850_17	29	9	kill	kill	VB
homer-odyssey-850_17	29	10	them	-PRON-	PRP
homer-odyssey-850_17	29	11	,	,	,
homer-odyssey-850_17	29	12	I	-PRON-	PRP
homer-odyssey-850_17	29	13	shall	shall	MD
homer-odyssey-850_17	29	14	be	be	VB
homer-odyssey-850_17	29	15	much	much	RB
homer-odyssey-850_17	29	16	obliged	oblige	VBN
homer-odyssey-850_17	29	17	if	if	IN
homer-odyssey-850_17	29	18	you	-PRON-	PRP
homer-odyssey-850_17	29	19	will	will	MD
homer-odyssey-850_17	29	20	kindly	kindly	RB
homer-odyssey-850_17	29	21	bring	bring	VB
homer-odyssey-850_17	29	22	me	-PRON-	PRP
homer-odyssey-850_17	29	23	my	-PRON-	PRP$
homer-odyssey-850_17	29	24	presents	present	NNS
homer-odyssey-850_17	29	25	.	.	.
homer-odyssey-850_17	29	26	"	"	''
homer-odyssey-850_17	30	1	With	with	IN
homer-odyssey-850_17	30	2	these	these	DT
homer-odyssey-850_17	30	3	words	word	NNS
homer-odyssey-850_17	30	4	he	-PRON-	PRP
homer-odyssey-850_17	30	5	took	take	VBD
homer-odyssey-850_17	30	6	Theoclymenus	theoclymenus	NNP
homer-odyssey-850_17	30	7	to	to	IN
homer-odyssey-850_17	30	8	his	-PRON-	PRP$
homer-odyssey-850_17	30	9	own	own	JJ
homer-odyssey-850_17	30	10	house	house	NN
homer-odyssey-850_17	30	11	.	.	.
homer-odyssey-850_17	31	1	When	when	WRB
homer-odyssey-850_17	31	2	they	-PRON-	PRP
homer-odyssey-850_17	31	3	got	get	VBD
homer-odyssey-850_17	31	4	there	there	RB
homer-odyssey-850_17	31	5	they	-PRON-	PRP
homer-odyssey-850_17	31	6	laid	lay	VBD
homer-odyssey-850_17	31	7	their	-PRON-	PRP$
homer-odyssey-850_17	31	8	cloaks	cloak	NNS
homer-odyssey-850_17	31	9	on	on	IN
homer-odyssey-850_17	31	10	the	the	DT
homer-odyssey-850_17	31	11	benches	bench	NNS
homer-odyssey-850_17	31	12	and	and	CC
homer-odyssey-850_17	31	13	seats	seat	NNS
homer-odyssey-850_17	31	14	,	,	,
homer-odyssey-850_17	31	15	went	go	VBD
homer-odyssey-850_17	31	16	into	into	IN
homer-odyssey-850_17	31	17	the	the	DT
homer-odyssey-850_17	31	18	baths	bath	NNS
homer-odyssey-850_17	31	19	,	,	,
homer-odyssey-850_17	31	20	and	and	CC
homer-odyssey-850_17	31	21	washed	wash	VBD
homer-odyssey-850_17	31	22	themselves	-PRON-	PRP
homer-odyssey-850_17	31	23	.	.	.
homer-odyssey-850_17	32	1	When	when	WRB
homer-odyssey-850_17	32	2	the	the	DT
homer-odyssey-850_17	32	3	maids	maid	NNS
homer-odyssey-850_17	32	4	had	have	VBD
homer-odyssey-850_17	32	5	washed	wash	VBN
homer-odyssey-850_17	32	6	and	and	CC
homer-odyssey-850_17	32	7	anointed	anoint	VBN
homer-odyssey-850_17	32	8	them	-PRON-	PRP
homer-odyssey-850_17	32	9	,	,	,
homer-odyssey-850_17	32	10	and	and	CC
homer-odyssey-850_17	32	11	had	have	VBD
homer-odyssey-850_17	32	12	given	give	VBN
homer-odyssey-850_17	32	13	them	-PRON-	PRP
homer-odyssey-850_17	32	14	cloaks	cloak	NNS
homer-odyssey-850_17	32	15	and	and	CC
homer-odyssey-850_17	32	16	shirts	shirt	NNS
homer-odyssey-850_17	32	17	,	,	,
homer-odyssey-850_17	32	18	they	-PRON-	PRP
homer-odyssey-850_17	32	19	took	take	VBD
homer-odyssey-850_17	32	20	their	-PRON-	PRP$
homer-odyssey-850_17	32	21	seats	seat	NNS
homer-odyssey-850_17	32	22	at	at	IN
homer-odyssey-850_17	32	23	table	table	NN
homer-odyssey-850_17	32	24	.	.	.
homer-odyssey-850_17	33	1	A	a	DT
homer-odyssey-850_17	33	2	maid	maid	JJ
homer-odyssey-850_17	33	3	servant	servant	NN
homer-odyssey-850_17	33	4	then	then	RB
homer-odyssey-850_17	33	5	brought	bring	VBD
homer-odyssey-850_17	33	6	them	-PRON-	PRP
homer-odyssey-850_17	33	7	water	water	NN
homer-odyssey-850_17	33	8	in	in	IN
homer-odyssey-850_17	33	9	a	a	DT
homer-odyssey-850_17	33	10	beautiful	beautiful	JJ
homer-odyssey-850_17	33	11	golden	golden	JJ
homer-odyssey-850_17	33	12	ewer	ewer	NN
homer-odyssey-850_17	33	13	,	,	,
homer-odyssey-850_17	33	14	and	and	CC
homer-odyssey-850_17	33	15	poured	pour	VBD
homer-odyssey-850_17	33	16	it	-PRON-	PRP
homer-odyssey-850_17	33	17	into	into	IN
homer-odyssey-850_17	33	18	a	a	DT
homer-odyssey-850_17	33	19	silver	silver	JJ
homer-odyssey-850_17	33	20	basin	basin	NN
homer-odyssey-850_17	33	21	for	for	IN
homer-odyssey-850_17	33	22	them	-PRON-	PRP
homer-odyssey-850_17	33	23	to	to	TO
homer-odyssey-850_17	33	24	wash	wash	VB
homer-odyssey-850_17	33	25	their	-PRON-	PRP$
homer-odyssey-850_17	33	26	hands	hand	NNS
homer-odyssey-850_17	33	27	;	;	:
homer-odyssey-850_17	33	28	and	and	CC
homer-odyssey-850_17	33	29	she	-PRON-	PRP
homer-odyssey-850_17	33	30	drew	draw	VBD
homer-odyssey-850_17	33	31	a	a	DT
homer-odyssey-850_17	33	32	clean	clean	JJ
homer-odyssey-850_17	33	33	table	table	NN
homer-odyssey-850_17	33	34	beside	beside	IN
homer-odyssey-850_17	33	35	them	-PRON-	PRP
homer-odyssey-850_17	33	36	.	.	.
homer-odyssey-850_17	34	1	An	an	DT
homer-odyssey-850_17	34	2	upper	upper	JJ
homer-odyssey-850_17	34	3	servant	servant	NN
homer-odyssey-850_17	34	4	brought	bring	VBD
homer-odyssey-850_17	34	5	them	-PRON-	PRP
homer-odyssey-850_17	34	6	bread	bread	NN
homer-odyssey-850_17	34	7	and	and	CC
homer-odyssey-850_17	34	8	offered	offer	VBD
homer-odyssey-850_17	34	9	them	-PRON-	PRP
homer-odyssey-850_17	34	10	many	many	JJ
homer-odyssey-850_17	34	11	good	good	JJ
homer-odyssey-850_17	34	12	things	thing	NNS
homer-odyssey-850_17	34	13	of	of	IN
homer-odyssey-850_17	34	14	what	what	WP
homer-odyssey-850_17	34	15	there	there	EX
homer-odyssey-850_17	34	16	was	be	VBD
homer-odyssey-850_17	34	17	in	in	IN
homer-odyssey-850_17	34	18	the	the	DT
homer-odyssey-850_17	34	19	house	house	NN
homer-odyssey-850_17	34	20	.	.	.
homer-odyssey-850_17	35	1	Opposite	opposite	IN
homer-odyssey-850_17	35	2	them	-PRON-	PRP
homer-odyssey-850_17	35	3	sat	sit	VBD
homer-odyssey-850_17	35	4	Penelope	penelope	NNP
homer-odyssey-850_17	35	5	,	,	,
homer-odyssey-850_17	35	6	reclining	recline	VBG
homer-odyssey-850_17	35	7	on	on	IN
homer-odyssey-850_17	35	8	a	a	DT
homer-odyssey-850_17	35	9	couch	couch	NN
homer-odyssey-850_17	35	10	by	by	IN
homer-odyssey-850_17	35	11	one	one	CD
homer-odyssey-850_17	35	12	of	of	IN
homer-odyssey-850_17	35	13	the	the	DT
homer-odyssey-850_17	35	14	bearing-	bearing-	JJ
homer-odyssey-850_17	35	15	posts	post	NNS
homer-odyssey-850_17	35	16	of	of	IN
homer-odyssey-850_17	35	17	the	the	DT
homer-odyssey-850_17	35	18	cloister	cloister	NN
homer-odyssey-850_17	35	19	,	,	,
homer-odyssey-850_17	35	20	and	and	CC
homer-odyssey-850_17	35	21	spinning	spin	VBG
homer-odyssey-850_17	35	22	.	.	.
homer-odyssey-850_17	36	1	Then	then	RB
homer-odyssey-850_17	36	2	they	-PRON-	PRP
homer-odyssey-850_17	36	3	laid	lay	VBD
homer-odyssey-850_17	36	4	their	-PRON-	PRP$
homer-odyssey-850_17	36	5	hands	hand	NNS
homer-odyssey-850_17	36	6	on	on	IN
homer-odyssey-850_17	36	7	the	the	DT
homer-odyssey-850_17	36	8	good	good	JJ
homer-odyssey-850_17	36	9	things	thing	NNS
homer-odyssey-850_17	36	10	that	that	WDT
homer-odyssey-850_17	36	11	were	be	VBD
homer-odyssey-850_17	36	12	before	before	IN
homer-odyssey-850_17	36	13	them	-PRON-	PRP
homer-odyssey-850_17	36	14	,	,	,
homer-odyssey-850_17	36	15	and	and	CC
homer-odyssey-850_17	36	16	as	as	RB
homer-odyssey-850_17	36	17	soon	soon	RB
homer-odyssey-850_17	36	18	as	as	IN
homer-odyssey-850_17	36	19	they	-PRON-	PRP
homer-odyssey-850_17	36	20	had	have	VBD
homer-odyssey-850_17	36	21	had	have	VBN
homer-odyssey-850_17	36	22	enough	enough	JJ
homer-odyssey-850_17	36	23	to	to	TO
homer-odyssey-850_17	36	24	eat	eat	VB
homer-odyssey-850_17	36	25	and	and	CC
homer-odyssey-850_17	36	26	drink	drink	VB
homer-odyssey-850_17	36	27	Penelope	penelope	NNP
homer-odyssey-850_17	36	28	said	say	VBD
homer-odyssey-850_17	36	29	:	:	:
homer-odyssey-850_17	36	30	"	"	``
homer-odyssey-850_17	36	31	Telemachus	telemachus	NNP
homer-odyssey-850_17	36	32	,	,	,
homer-odyssey-850_17	36	33	I	-PRON-	PRP
homer-odyssey-850_17	36	34	shall	shall	MD
homer-odyssey-850_17	36	35	go	go	VB
homer-odyssey-850_17	36	36	upstairs	upstairs	RB
homer-odyssey-850_17	36	37	and	and	CC
homer-odyssey-850_17	36	38	lie	lie	VB
homer-odyssey-850_17	36	39	down	down	RP
homer-odyssey-850_17	36	40	on	on	IN
homer-odyssey-850_17	36	41	that	that	DT
homer-odyssey-850_17	36	42	sad	sad	JJ
homer-odyssey-850_17	36	43	couch	couch	NN
homer-odyssey-850_17	36	44	,	,	,
homer-odyssey-850_17	36	45	which	which	WDT
homer-odyssey-850_17	36	46	I	-PRON-	PRP
homer-odyssey-850_17	36	47	have	have	VBP
homer-odyssey-850_17	36	48	not	not	RB
homer-odyssey-850_17	36	49	ceased	cease	VBN
homer-odyssey-850_17	36	50	to	to	TO
homer-odyssey-850_17	36	51	water	water	VB
homer-odyssey-850_17	36	52	with	with	IN
homer-odyssey-850_17	36	53	my	-PRON-	PRP$
homer-odyssey-850_17	36	54	tears	tear	NNS
homer-odyssey-850_17	36	55	,	,	,
homer-odyssey-850_17	36	56	from	from	IN
homer-odyssey-850_17	36	57	the	the	DT
homer-odyssey-850_17	36	58	day	day	NN
homer-odyssey-850_17	36	59	Ulysses	ulysses	NNPS
homer-odyssey-850_17	36	60	set	set	VBN
homer-odyssey-850_17	36	61	out	out	RP
homer-odyssey-850_17	36	62	for	for	IN
homer-odyssey-850_17	36	63	Troy	troy	NNP
homer-odyssey-850_17	36	64	with	with	IN
homer-odyssey-850_17	36	65	the	the	DT
homer-odyssey-850_17	36	66	sons	son	NNS
homer-odyssey-850_17	36	67	of	of	IN
homer-odyssey-850_17	36	68	Atreus	atreus	NNP
homer-odyssey-850_17	36	69	.	.	.
homer-odyssey-850_17	37	1	You	-PRON-	PRP
homer-odyssey-850_17	37	2	failed	fail	VBD
homer-odyssey-850_17	37	3	,	,	,
homer-odyssey-850_17	37	4	however	however	RB
homer-odyssey-850_17	37	5	,	,	,
homer-odyssey-850_17	37	6	to	to	TO
homer-odyssey-850_17	37	7	make	make	VB
homer-odyssey-850_17	37	8	it	-PRON-	PRP
homer-odyssey-850_17	37	9	clear	clear	JJ
homer-odyssey-850_17	37	10	to	to	IN
homer-odyssey-850_17	37	11	me	-PRON-	PRP
homer-odyssey-850_17	37	12	before	before	IN
homer-odyssey-850_17	37	13	the	the	DT
homer-odyssey-850_17	37	14	suitors	suitor	NNS
homer-odyssey-850_17	37	15	came	come	VBD
homer-odyssey-850_17	37	16	back	back	RB
homer-odyssey-850_17	37	17	to	to	IN
homer-odyssey-850_17	37	18	the	the	DT
homer-odyssey-850_17	37	19	house	house	NN
homer-odyssey-850_17	37	20	,	,	,
homer-odyssey-850_17	37	21	whether	whether	IN
homer-odyssey-850_17	37	22	or	or	CC
homer-odyssey-850_17	37	23	no	no	UH
homer-odyssey-850_17	37	24	you	-PRON-	PRP
homer-odyssey-850_17	37	25	had	have	VBD
homer-odyssey-850_17	37	26	been	be	VBN
homer-odyssey-850_17	37	27	able	able	JJ
homer-odyssey-850_17	37	28	to	to	TO
homer-odyssey-850_17	37	29	hear	hear	VB
homer-odyssey-850_17	37	30	anything	anything	NN
homer-odyssey-850_17	37	31	about	about	IN
homer-odyssey-850_17	37	32	the	the	DT
homer-odyssey-850_17	37	33	return	return	NN
homer-odyssey-850_17	37	34	of	of	IN
homer-odyssey-850_17	37	35	your	-PRON-	PRP$
homer-odyssey-850_17	37	36	father	father	NN
homer-odyssey-850_17	37	37	.	.	.
homer-odyssey-850_17	37	38	"	"	''
homer-odyssey-850_17	38	1	"	"	``
homer-odyssey-850_17	38	2	I	-PRON-	PRP
homer-odyssey-850_17	38	3	will	will	MD
homer-odyssey-850_17	38	4	tell	tell	VB
homer-odyssey-850_17	38	5	you	-PRON-	PRP
homer-odyssey-850_17	38	6	then	then	RB
homer-odyssey-850_17	38	7	truth	truth	NN
homer-odyssey-850_17	38	8	,	,	,
homer-odyssey-850_17	38	9	"	"	''
homer-odyssey-850_17	38	10	replied	reply	VBD
homer-odyssey-850_17	38	11	her	-PRON-	PRP$
homer-odyssey-850_17	38	12	son	son	NN
homer-odyssey-850_17	38	13	.	.	.
homer-odyssey-850_17	39	1	"	"	``
homer-odyssey-850_17	39	2	We	-PRON-	PRP
homer-odyssey-850_17	39	3	went	go	VBD
homer-odyssey-850_17	39	4	to	to	IN
homer-odyssey-850_17	39	5	Pylos	pylos	NNP
homer-odyssey-850_17	39	6	and	and	CC
homer-odyssey-850_17	39	7	saw	see	VBD
homer-odyssey-850_17	39	8	Nestor	nestor	NNP
homer-odyssey-850_17	39	9	,	,	,
homer-odyssey-850_17	39	10	who	who	WP
homer-odyssey-850_17	39	11	took	take	VBD
homer-odyssey-850_17	39	12	me	-PRON-	PRP
homer-odyssey-850_17	39	13	to	to	IN
homer-odyssey-850_17	39	14	his	-PRON-	PRP$
homer-odyssey-850_17	39	15	house	house	NN
homer-odyssey-850_17	39	16	and	and	CC
homer-odyssey-850_17	39	17	treated	treat	VBD
homer-odyssey-850_17	39	18	me	-PRON-	PRP
homer-odyssey-850_17	39	19	as	as	IN
homer-odyssey-850_17	39	20	hospitably	hospitably	RB
homer-odyssey-850_17	39	21	as	as	IN
homer-odyssey-850_17	39	22	though	though	IN
homer-odyssey-850_17	39	23	I	-PRON-	PRP
homer-odyssey-850_17	39	24	were	be	VBD
homer-odyssey-850_17	39	25	a	a	DT
homer-odyssey-850_17	39	26	son	son	NN
homer-odyssey-850_17	39	27	of	of	IN
homer-odyssey-850_17	39	28	his	-PRON-	PRP$
homer-odyssey-850_17	39	29	own	own	JJ
homer-odyssey-850_17	39	30	who	who	WP
homer-odyssey-850_17	39	31	had	have	VBD
homer-odyssey-850_17	39	32	just	just	RB
homer-odyssey-850_17	39	33	returned	return	VBN
homer-odyssey-850_17	39	34	after	after	IN
homer-odyssey-850_17	39	35	a	a	DT
homer-odyssey-850_17	39	36	long	long	JJ
homer-odyssey-850_17	39	37	absence	absence	NN
homer-odyssey-850_17	39	38	;	;	:
homer-odyssey-850_17	39	39	so	so	RB
homer-odyssey-850_17	39	40	also	also	RB
homer-odyssey-850_17	39	41	did	do	VBD
homer-odyssey-850_17	39	42	his	-PRON-	PRP$
homer-odyssey-850_17	39	43	sons	son	NNS
homer-odyssey-850_17	39	44	;	;	:
homer-odyssey-850_17	39	45	but	but	CC
homer-odyssey-850_17	39	46	he	-PRON-	PRP
homer-odyssey-850_17	39	47	said	say	VBD
homer-odyssey-850_17	39	48	he	-PRON-	PRP
homer-odyssey-850_17	39	49	had	have	VBD
homer-odyssey-850_17	39	50	not	not	RB
homer-odyssey-850_17	39	51	heard	hear	VBN
homer-odyssey-850_17	39	52	a	a	DT
homer-odyssey-850_17	39	53	word	word	NN
homer-odyssey-850_17	39	54	from	from	IN
homer-odyssey-850_17	39	55	any	any	DT
homer-odyssey-850_17	39	56	human	human	JJ
homer-odyssey-850_17	39	57	being	be	VBG
homer-odyssey-850_17	39	58	about	about	IN
homer-odyssey-850_17	39	59	Ulysses	ulysses	NNPS
homer-odyssey-850_17	39	60	,	,	,
homer-odyssey-850_17	39	61	whether	whether	IN
homer-odyssey-850_17	39	62	he	-PRON-	PRP
homer-odyssey-850_17	39	63	was	be	VBD
homer-odyssey-850_17	39	64	alive	alive	JJ
homer-odyssey-850_17	39	65	or	or	CC
homer-odyssey-850_17	39	66	dead	dead	JJ
homer-odyssey-850_17	39	67	.	.	.
homer-odyssey-850_17	40	1	He	-PRON-	PRP
homer-odyssey-850_17	40	2	sent	send	VBD
homer-odyssey-850_17	40	3	me	-PRON-	PRP
homer-odyssey-850_17	40	4	,	,	,
homer-odyssey-850_17	40	5	therefore	therefore	RB
homer-odyssey-850_17	40	6	,	,	,
homer-odyssey-850_17	40	7	with	with	IN
homer-odyssey-850_17	40	8	a	a	DT
homer-odyssey-850_17	40	9	chariot	chariot	NN
homer-odyssey-850_17	40	10	and	and	CC
homer-odyssey-850_17	40	11	horses	horse	NNS
homer-odyssey-850_17	40	12	to	to	IN
homer-odyssey-850_17	40	13	Menelaus	menelaus	NNP
homer-odyssey-850_17	40	14	.	.	.
homer-odyssey-850_17	41	1	There	there	RB
homer-odyssey-850_17	41	2	I	-PRON-	PRP
homer-odyssey-850_17	41	3	saw	see	VBD
homer-odyssey-850_17	41	4	Helen	helen	NNP
homer-odyssey-850_17	41	5	,	,	,
homer-odyssey-850_17	41	6	for	for	IN
homer-odyssey-850_17	41	7	whose	whose	WP$
homer-odyssey-850_17	41	8	sake	sake	NN
homer-odyssey-850_17	41	9	so	so	RB
homer-odyssey-850_17	41	10	many	many	JJ
homer-odyssey-850_17	41	11	,	,	,
homer-odyssey-850_17	41	12	both	both	CC
homer-odyssey-850_17	41	13	Argives	argives	NNPS
homer-odyssey-850_17	41	14	and	and	CC
homer-odyssey-850_17	41	15	Trojans	trojans	NNPS
homer-odyssey-850_17	41	16	,	,	,
homer-odyssey-850_17	41	17	were	be	VBD
homer-odyssey-850_17	41	18	in	in	IN
homer-odyssey-850_17	41	19	heaven	heaven	NNP
homer-odyssey-850_17	41	20	's	's	POS
homer-odyssey-850_17	41	21	wisdom	wisdom	NN
homer-odyssey-850_17	41	22	doomed	doom	VBN
homer-odyssey-850_17	41	23	to	to	TO
homer-odyssey-850_17	41	24	suffer	suffer	VB
homer-odyssey-850_17	41	25	.	.	.
homer-odyssey-850_17	42	1	Menelaus	menelaus	NNP
homer-odyssey-850_17	42	2	asked	ask	VBD
homer-odyssey-850_17	42	3	me	-PRON-	PRP
homer-odyssey-850_17	42	4	what	what	WP
homer-odyssey-850_17	42	5	it	-PRON-	PRP
homer-odyssey-850_17	42	6	was	be	VBD
homer-odyssey-850_17	42	7	that	that	DT
homer-odyssey-850_17	42	8	had	have	VBD
homer-odyssey-850_17	42	9	brought	bring	VBN
homer-odyssey-850_17	42	10	me	-PRON-	PRP
homer-odyssey-850_17	42	11	to	to	IN
homer-odyssey-850_17	42	12	Lacedaemon	lacedaemon	NNP
homer-odyssey-850_17	42	13	,	,	,
homer-odyssey-850_17	42	14	and	and	CC
homer-odyssey-850_17	42	15	I	-PRON-	PRP
homer-odyssey-850_17	42	16	told	tell	VBD
homer-odyssey-850_17	42	17	him	-PRON-	PRP
homer-odyssey-850_17	42	18	the	the	DT
homer-odyssey-850_17	42	19	whole	whole	JJ
homer-odyssey-850_17	42	20	truth	truth	NN
homer-odyssey-850_17	42	21	,	,	,
homer-odyssey-850_17	42	22	whereon	whereon	NN
homer-odyssey-850_17	42	23	he	-PRON-	PRP
homer-odyssey-850_17	42	24	said	say	VBD
homer-odyssey-850_17	42	25	,	,	,
homer-odyssey-850_17	42	26	'	'	''
homer-odyssey-850_17	42	27	So	so	RB
homer-odyssey-850_17	42	28	,	,	,
homer-odyssey-850_17	42	29	then	then	RB
homer-odyssey-850_17	42	30	,	,	,
homer-odyssey-850_17	42	31	these	these	DT
homer-odyssey-850_17	42	32	cowards	coward	NNS
homer-odyssey-850_17	42	33	would	would	MD
homer-odyssey-850_17	42	34	usurp	usurp	VB
homer-odyssey-850_17	42	35	a	a	DT
homer-odyssey-850_17	42	36	brave	brave	JJ
homer-odyssey-850_17	42	37	man	man	NN
homer-odyssey-850_17	42	38	's	's	POS
homer-odyssey-850_17	42	39	bed	bed	NN
homer-odyssey-850_17	42	40	?	?	.
homer-odyssey-850_17	43	1	A	a	DT
homer-odyssey-850_17	43	2	hind	hind	NN
homer-odyssey-850_17	43	3	might	may	MD
homer-odyssey-850_17	43	4	as	as	RB
homer-odyssey-850_17	43	5	well	well	RB
homer-odyssey-850_17	43	6	lay	lay	VB
homer-odyssey-850_17	43	7	her	-PRON-	PRP
homer-odyssey-850_17	43	8	new-	new-	UH
homer-odyssey-850_17	43	9	born	bear	VBN
homer-odyssey-850_17	43	10	young	young	JJ
homer-odyssey-850_17	43	11	in	in	IN
homer-odyssey-850_17	43	12	the	the	DT
homer-odyssey-850_17	43	13	lair	lair	NN
homer-odyssey-850_17	43	14	of	of	IN
homer-odyssey-850_17	43	15	a	a	DT
homer-odyssey-850_17	43	16	lion	lion	NN
homer-odyssey-850_17	43	17	,	,	,
homer-odyssey-850_17	43	18	and	and	CC
homer-odyssey-850_17	43	19	then	then	RB
homer-odyssey-850_17	43	20	go	go	VB
homer-odyssey-850_17	43	21	off	off	RP
homer-odyssey-850_17	43	22	to	to	TO
homer-odyssey-850_17	43	23	feed	feed	VB
homer-odyssey-850_17	43	24	in	in	IN
homer-odyssey-850_17	43	25	the	the	DT
homer-odyssey-850_17	43	26	forest	forest	NN
homer-odyssey-850_17	43	27	or	or	CC
homer-odyssey-850_17	43	28	in	in	IN
homer-odyssey-850_17	43	29	some	some	DT
homer-odyssey-850_17	43	30	grassy	grassy	JJ
homer-odyssey-850_17	43	31	dell	dell	NN
homer-odyssey-850_17	43	32	.	.	.
homer-odyssey-850_17	44	1	The	the	DT
homer-odyssey-850_17	44	2	lion	lion	NN
homer-odyssey-850_17	44	3	,	,	,
homer-odyssey-850_17	44	4	when	when	WRB
homer-odyssey-850_17	44	5	he	-PRON-	PRP
homer-odyssey-850_17	44	6	comes	come	VBZ
homer-odyssey-850_17	44	7	back	back	RB
homer-odyssey-850_17	44	8	to	to	IN
homer-odyssey-850_17	44	9	his	-PRON-	PRP$
homer-odyssey-850_17	44	10	lair	lair	NN
homer-odyssey-850_17	44	11	,	,	,
homer-odyssey-850_17	44	12	will	will	MD
homer-odyssey-850_17	44	13	make	make	VB
homer-odyssey-850_17	44	14	short	short	JJ
homer-odyssey-850_17	44	15	work	work	NN
homer-odyssey-850_17	44	16	with	with	IN
homer-odyssey-850_17	44	17	the	the	DT
homer-odyssey-850_17	44	18	pair	pair	NN
homer-odyssey-850_17	44	19	of	of	IN
homer-odyssey-850_17	44	20	them	-PRON-	PRP
homer-odyssey-850_17	44	21	,	,	,
homer-odyssey-850_17	44	22	and	and	CC
homer-odyssey-850_17	44	23	so	so	RB
homer-odyssey-850_17	44	24	will	will	MD
homer-odyssey-850_17	44	25	Ulysses	ulyss	NNS
homer-odyssey-850_17	44	26	with	with	IN
homer-odyssey-850_17	44	27	these	these	DT
homer-odyssey-850_17	44	28	suitors	suitor	NNS
homer-odyssey-850_17	44	29	.	.	.
homer-odyssey-850_17	45	1	By	by	IN
homer-odyssey-850_17	45	2	father	father	NN
homer-odyssey-850_17	45	3	Jove	jove	NNP
homer-odyssey-850_17	45	4	,	,	,
homer-odyssey-850_17	45	5	Minerva	minerva	NNP
homer-odyssey-850_17	45	6	,	,	,
homer-odyssey-850_17	45	7	and	and	CC
homer-odyssey-850_17	45	8	Apollo	apollo	NNP
homer-odyssey-850_17	45	9	,	,	,
homer-odyssey-850_17	45	10	if	if	IN
homer-odyssey-850_17	45	11	Ulysses	ulyss	NNS
homer-odyssey-850_17	45	12	is	be	VBZ
homer-odyssey-850_17	45	13	still	still	RB
homer-odyssey-850_17	45	14	the	the	DT
homer-odyssey-850_17	45	15	man	man	NN
homer-odyssey-850_17	45	16	that	that	WDT
homer-odyssey-850_17	45	17	he	-PRON-	PRP
homer-odyssey-850_17	45	18	was	be	VBD
homer-odyssey-850_17	45	19	when	when	WRB
homer-odyssey-850_17	45	20	he	-PRON-	PRP
homer-odyssey-850_17	45	21	wrestled	wrestle	VBD
homer-odyssey-850_17	45	22	with	with	IN
homer-odyssey-850_17	45	23	Philomeleides	philomeleides	NNPS
homer-odyssey-850_17	45	24	in	in	IN
homer-odyssey-850_17	45	25	Lesbos	lesbos	NNP
homer-odyssey-850_17	45	26	,	,	,
homer-odyssey-850_17	45	27	and	and	CC
homer-odyssey-850_17	45	28	threw	throw	VBD
homer-odyssey-850_17	45	29	him	-PRON-	PRP
homer-odyssey-850_17	45	30	so	so	RB
homer-odyssey-850_17	45	31	heavily	heavily	RB
homer-odyssey-850_17	45	32	that	that	IN
homer-odyssey-850_17	45	33	all	all	PDT
homer-odyssey-850_17	45	34	the	the	DT
homer-odyssey-850_17	45	35	Greeks	greeks	NNPS
homer-odyssey-850_17	45	36	cheered	cheer	VBD
homer-odyssey-850_17	45	37	him--	him--	RB
homer-odyssey-850_17	45	38	if	if	IN
homer-odyssey-850_17	45	39	he	-PRON-	PRP
homer-odyssey-850_17	45	40	is	be	VBZ
homer-odyssey-850_17	45	41	still	still	RB
homer-odyssey-850_17	45	42	such	such	JJ
homer-odyssey-850_17	45	43	,	,	,
homer-odyssey-850_17	45	44	and	and	CC
homer-odyssey-850_17	45	45	were	be	VBD
homer-odyssey-850_17	45	46	to	to	TO
homer-odyssey-850_17	45	47	come	come	VB
homer-odyssey-850_17	45	48	near	near	IN
homer-odyssey-850_17	45	49	these	these	DT
homer-odyssey-850_17	45	50	suitors	suitor	NNS
homer-odyssey-850_17	45	51	,	,	,
homer-odyssey-850_17	45	52	they	-PRON-	PRP
homer-odyssey-850_17	45	53	would	would	MD
homer-odyssey-850_17	45	54	have	have	VB
homer-odyssey-850_17	45	55	a	a	DT
homer-odyssey-850_17	45	56	short	short	JJ
homer-odyssey-850_17	45	57	shrift	shrift	NN
homer-odyssey-850_17	45	58	and	and	CC
homer-odyssey-850_17	45	59	a	a	DT
homer-odyssey-850_17	45	60	sorry	sorry	JJ
homer-odyssey-850_17	45	61	wedding	wedding	NN
homer-odyssey-850_17	45	62	.	.	.
homer-odyssey-850_17	46	1	As	as	IN
homer-odyssey-850_17	46	2	regards	regard	VBZ
homer-odyssey-850_17	46	3	your	-PRON-	PRP$
homer-odyssey-850_17	46	4	question	question	NN
homer-odyssey-850_17	46	5	,	,	,
homer-odyssey-850_17	46	6	however	however	RB
homer-odyssey-850_17	46	7	,	,	,
homer-odyssey-850_17	46	8	I	-PRON-	PRP
homer-odyssey-850_17	46	9	will	will	MD
homer-odyssey-850_17	46	10	not	not	RB
homer-odyssey-850_17	46	11	prevaricate	prevaricate	VB
homer-odyssey-850_17	46	12	nor	nor	CC
homer-odyssey-850_17	46	13	deceive	deceive	VB
homer-odyssey-850_17	46	14	you	-PRON-	PRP
homer-odyssey-850_17	46	15	,	,	,
homer-odyssey-850_17	46	16	but	but	CC
homer-odyssey-850_17	46	17	what	what	WP
homer-odyssey-850_17	46	18	the	the	DT
homer-odyssey-850_17	46	19	old	old	JJ
homer-odyssey-850_17	46	20	man	man	NN
homer-odyssey-850_17	46	21	of	of	IN
homer-odyssey-850_17	46	22	the	the	DT
homer-odyssey-850_17	46	23	sea	sea	NN
homer-odyssey-850_17	46	24	told	tell	VBD
homer-odyssey-850_17	46	25	me	-PRON-	PRP
homer-odyssey-850_17	46	26	,	,	,
homer-odyssey-850_17	46	27	so	so	RB
homer-odyssey-850_17	46	28	much	much	RB
homer-odyssey-850_17	46	29	will	will	MD
homer-odyssey-850_17	46	30	I	-PRON-	PRP
homer-odyssey-850_17	46	31	tell	tell	VB
homer-odyssey-850_17	46	32	you	-PRON-	PRP
homer-odyssey-850_17	46	33	in	in	IN
homer-odyssey-850_17	46	34	full	full	JJ
homer-odyssey-850_17	46	35	.	.	.
homer-odyssey-850_17	47	1	He	-PRON-	PRP
homer-odyssey-850_17	47	2	said	say	VBD
homer-odyssey-850_17	47	3	he	-PRON-	PRP
homer-odyssey-850_17	47	4	could	could	MD
homer-odyssey-850_17	47	5	see	see	VB
homer-odyssey-850_17	47	6	Ulysses	ulyss	NNS
homer-odyssey-850_17	47	7	on	on	IN
homer-odyssey-850_17	47	8	an	an	DT
homer-odyssey-850_17	47	9	island	island	NN
homer-odyssey-850_17	47	10	sorrowing	sorrowing	NN
homer-odyssey-850_17	47	11	bitterly	bitterly	RB
homer-odyssey-850_17	47	12	in	in	IN
homer-odyssey-850_17	47	13	the	the	DT
homer-odyssey-850_17	47	14	house	house	NN
homer-odyssey-850_17	47	15	of	of	IN
homer-odyssey-850_17	47	16	the	the	DT
homer-odyssey-850_17	47	17	nymph	nymph	NN
homer-odyssey-850_17	47	18	Calypso	calypso	NNP
homer-odyssey-850_17	47	19	,	,	,
homer-odyssey-850_17	47	20	who	who	WP
homer-odyssey-850_17	47	21	was	be	VBD
homer-odyssey-850_17	47	22	keeping	keep	VBG
homer-odyssey-850_17	47	23	him	-PRON-	PRP
homer-odyssey-850_17	47	24	prisoner	prisoner	NN
homer-odyssey-850_17	47	25	,	,	,
homer-odyssey-850_17	47	26	and	and	CC
homer-odyssey-850_17	47	27	he	-PRON-	PRP
homer-odyssey-850_17	47	28	could	could	MD
homer-odyssey-850_17	47	29	not	not	RB
homer-odyssey-850_17	47	30	reach	reach	VB
homer-odyssey-850_17	47	31	his	-PRON-	PRP$
homer-odyssey-850_17	47	32	home	home	NN
homer-odyssey-850_17	47	33	,	,	,
homer-odyssey-850_17	47	34	for	for	IN
homer-odyssey-850_17	47	35	he	-PRON-	PRP
homer-odyssey-850_17	47	36	had	have	VBD
homer-odyssey-850_17	47	37	no	no	DT
homer-odyssey-850_17	47	38	ships	ship	NNS
homer-odyssey-850_17	47	39	nor	nor	CC
homer-odyssey-850_17	47	40	sailors	sailor	NNS
homer-odyssey-850_17	47	41	to	to	TO
homer-odyssey-850_17	47	42	take	take	VB
homer-odyssey-850_17	47	43	him	-PRON-	PRP
homer-odyssey-850_17	47	44	over	over	IN
homer-odyssey-850_17	47	45	the	the	DT
homer-odyssey-850_17	47	46	sea	sea	NN
homer-odyssey-850_17	47	47	.	.	.
homer-odyssey-850_17	47	48	'	'	''
homer-odyssey-850_17	48	1	This	this	DT
homer-odyssey-850_17	48	2	was	be	VBD
homer-odyssey-850_17	48	3	what	what	WP
homer-odyssey-850_17	48	4	Menelaus	menelaus	NNP
homer-odyssey-850_17	48	5	told	tell	VBD
homer-odyssey-850_17	48	6	me	-PRON-	PRP
homer-odyssey-850_17	48	7	,	,	,
homer-odyssey-850_17	48	8	and	and	CC
homer-odyssey-850_17	48	9	when	when	WRB
homer-odyssey-850_17	48	10	I	-PRON-	PRP
homer-odyssey-850_17	48	11	had	have	VBD
homer-odyssey-850_17	48	12	heard	hear	VBN
homer-odyssey-850_17	48	13	his	-PRON-	PRP$
homer-odyssey-850_17	48	14	story	story	NN
homer-odyssey-850_17	48	15	I	-PRON-	PRP
homer-odyssey-850_17	48	16	came	come	VBD
homer-odyssey-850_17	48	17	away	away	RB
homer-odyssey-850_17	48	18	;	;	:
homer-odyssey-850_17	48	19	the	the	DT
homer-odyssey-850_17	48	20	gods	god	NNS
homer-odyssey-850_17	48	21	then	then	RB
homer-odyssey-850_17	48	22	gave	give	VBD
homer-odyssey-850_17	48	23	me	-PRON-	PRP
homer-odyssey-850_17	48	24	a	a	DT
homer-odyssey-850_17	48	25	fair	fair	JJ
homer-odyssey-850_17	48	26	wind	wind	NN
homer-odyssey-850_17	48	27	and	and	CC
homer-odyssey-850_17	48	28	soon	soon	RB
homer-odyssey-850_17	48	29	brought	bring	VBD
homer-odyssey-850_17	48	30	me	-PRON-	PRP
homer-odyssey-850_17	48	31	safe	safe	JJ
homer-odyssey-850_17	48	32	home	home	RB
homer-odyssey-850_17	48	33	again	again	RB
homer-odyssey-850_17	48	34	.	.	.
homer-odyssey-850_17	48	35	"	"	''
homer-odyssey-850_17	49	1	With	with	IN
homer-odyssey-850_17	49	2	these	these	DT
homer-odyssey-850_17	49	3	words	word	NNS
homer-odyssey-850_17	49	4	he	-PRON-	PRP
homer-odyssey-850_17	49	5	moved	move	VBD
homer-odyssey-850_17	49	6	the	the	DT
homer-odyssey-850_17	49	7	heart	heart	NN
homer-odyssey-850_17	49	8	of	of	IN
homer-odyssey-850_17	49	9	Penelope	penelope	NNP
homer-odyssey-850_17	49	10	.	.	.
homer-odyssey-850_17	50	1	Then	then	RB
homer-odyssey-850_17	50	2	Theoclymenus	theoclymenus	NNP
homer-odyssey-850_17	50	3	said	say	VBD
homer-odyssey-850_17	50	4	to	to	IN
homer-odyssey-850_17	50	5	her	-PRON-	PRP
homer-odyssey-850_17	50	6	:	:	:
homer-odyssey-850_17	50	7	"	"	``
homer-odyssey-850_17	50	8	Madam	madam	NNP
homer-odyssey-850_17	50	9	,	,	,
homer-odyssey-850_17	50	10	wife	wife	NN
homer-odyssey-850_17	50	11	of	of	IN
homer-odyssey-850_17	50	12	Ulysses	ulysses	NNPS
homer-odyssey-850_17	50	13	,	,	,
homer-odyssey-850_17	50	14	Telemachus	telemachus	NNP
homer-odyssey-850_17	50	15	does	do	VBZ
homer-odyssey-850_17	50	16	not	not	RB
homer-odyssey-850_17	50	17	understand	understand	VB
homer-odyssey-850_17	50	18	these	these	DT
homer-odyssey-850_17	50	19	things	thing	NNS
homer-odyssey-850_17	50	20	;	;	:
homer-odyssey-850_17	50	21	listen	listen	VB
homer-odyssey-850_17	50	22	therefore	therefore	RB
homer-odyssey-850_17	50	23	to	to	IN
homer-odyssey-850_17	50	24	me	-PRON-	PRP
homer-odyssey-850_17	50	25	,	,	,
homer-odyssey-850_17	50	26	for	for	IN
homer-odyssey-850_17	50	27	I	-PRON-	PRP
homer-odyssey-850_17	50	28	can	can	MD
homer-odyssey-850_17	50	29	divine	divine	VB
homer-odyssey-850_17	50	30	them	-PRON-	PRP
homer-odyssey-850_17	50	31	surely	surely	RB
homer-odyssey-850_17	50	32	,	,	,
homer-odyssey-850_17	50	33	and	and	CC
homer-odyssey-850_17	50	34	will	will	MD
homer-odyssey-850_17	50	35	hide	hide	VB
homer-odyssey-850_17	50	36	nothing	nothing	NN
homer-odyssey-850_17	50	37	from	from	IN
homer-odyssey-850_17	50	38	you	-PRON-	PRP
homer-odyssey-850_17	50	39	.	.	.
homer-odyssey-850_17	51	1	May	may	MD
homer-odyssey-850_17	51	2	Jove	jove	VB
homer-odyssey-850_17	51	3	the	the	DT
homer-odyssey-850_17	51	4	king	king	NN
homer-odyssey-850_17	51	5	of	of	IN
homer-odyssey-850_17	51	6	heaven	heaven	NNP
homer-odyssey-850_17	51	7	be	be	VB
homer-odyssey-850_17	51	8	my	-PRON-	PRP$
homer-odyssey-850_17	51	9	witness	witness	NN
homer-odyssey-850_17	51	10	,	,	,
homer-odyssey-850_17	51	11	and	and	CC
homer-odyssey-850_17	51	12	the	the	DT
homer-odyssey-850_17	51	13	rites	rite	NNS
homer-odyssey-850_17	51	14	of	of	IN
homer-odyssey-850_17	51	15	hospitality	hospitality	NN
homer-odyssey-850_17	51	16	,	,	,
homer-odyssey-850_17	51	17	with	with	IN
homer-odyssey-850_17	51	18	that	that	DT
homer-odyssey-850_17	51	19	hearth	hearth	NN
homer-odyssey-850_17	51	20	of	of	IN
homer-odyssey-850_17	51	21	Ulysses	ulyss	NNS
homer-odyssey-850_17	51	22	to	to	TO
homer-odyssey-850_17	51	23	which	which	WDT
homer-odyssey-850_17	51	24	I	-PRON-	PRP
homer-odyssey-850_17	51	25	now	now	RB
homer-odyssey-850_17	51	26	come	come	VBP
homer-odyssey-850_17	51	27	,	,	,
homer-odyssey-850_17	51	28	that	that	IN
homer-odyssey-850_17	51	29	Ulysses	ulyss	VBZ
homer-odyssey-850_17	51	30	himself	-PRON-	PRP
homer-odyssey-850_17	51	31	is	be	VBZ
homer-odyssey-850_17	51	32	even	even	RB
homer-odyssey-850_17	51	33	now	now	RB
homer-odyssey-850_17	51	34	in	in	IN
homer-odyssey-850_17	51	35	Ithaca	ithaca	NNP
homer-odyssey-850_17	51	36	,	,	,
homer-odyssey-850_17	51	37	and	and	CC
homer-odyssey-850_17	51	38	,	,	,
homer-odyssey-850_17	51	39	either	either	CC
homer-odyssey-850_17	51	40	going	go	VBG
homer-odyssey-850_17	51	41	about	about	IN
homer-odyssey-850_17	51	42	the	the	DT
homer-odyssey-850_17	51	43	country	country	NN
homer-odyssey-850_17	51	44	or	or	CC
homer-odyssey-850_17	51	45	staying	stay	VBG
homer-odyssey-850_17	51	46	in	in	IN
homer-odyssey-850_17	51	47	one	one	CD
homer-odyssey-850_17	51	48	place	place	NN
homer-odyssey-850_17	51	49	,	,	,
homer-odyssey-850_17	51	50	is	be	VBZ
homer-odyssey-850_17	51	51	enquiring	enquire	VBG
homer-odyssey-850_17	51	52	into	into	IN
homer-odyssey-850_17	51	53	all	all	PDT
homer-odyssey-850_17	51	54	these	these	DT
homer-odyssey-850_17	51	55	evil	evil	JJ
homer-odyssey-850_17	51	56	deeds	deed	NNS
homer-odyssey-850_17	51	57	and	and	CC
homer-odyssey-850_17	51	58	preparing	prepare	VBG
homer-odyssey-850_17	51	59	a	a	DT
homer-odyssey-850_17	51	60	day	day	NN
homer-odyssey-850_17	51	61	of	of	IN
homer-odyssey-850_17	51	62	reckoning	reckoning	NN
homer-odyssey-850_17	51	63	for	for	IN
homer-odyssey-850_17	51	64	the	the	DT
homer-odyssey-850_17	51	65	suitors	suitor	NNS
homer-odyssey-850_17	51	66	.	.	.
homer-odyssey-850_17	52	1	I	-PRON-	PRP
homer-odyssey-850_17	52	2	saw	see	VBD
homer-odyssey-850_17	52	3	an	an	DT
homer-odyssey-850_17	52	4	omen	oman	NNS
homer-odyssey-850_17	52	5	when	when	WRB
homer-odyssey-850_17	52	6	I	-PRON-	PRP
homer-odyssey-850_17	52	7	was	be	VBD
homer-odyssey-850_17	52	8	on	on	IN
homer-odyssey-850_17	52	9	the	the	DT
homer-odyssey-850_17	52	10	ship	ship	NN
homer-odyssey-850_17	52	11	which	which	WDT
homer-odyssey-850_17	52	12	meant	mean	VBD
homer-odyssey-850_17	52	13	this	this	DT
homer-odyssey-850_17	52	14	,	,	,
homer-odyssey-850_17	52	15	and	and	CC
homer-odyssey-850_17	52	16	I	-PRON-	PRP
homer-odyssey-850_17	52	17	told	tell	VBD
homer-odyssey-850_17	52	18	Telemachus	telemachus	NNP
homer-odyssey-850_17	52	19	about	about	IN
homer-odyssey-850_17	52	20	it	-PRON-	PRP
homer-odyssey-850_17	52	21	.	.	.
homer-odyssey-850_17	52	22	"	"	''
homer-odyssey-850_17	53	1	"	"	``
homer-odyssey-850_17	53	2	May	may	MD
homer-odyssey-850_17	53	3	it	-PRON-	PRP
homer-odyssey-850_17	53	4	be	be	VB
homer-odyssey-850_17	53	5	even	even	RB
homer-odyssey-850_17	53	6	so	so	RB
homer-odyssey-850_17	53	7	,	,	,
homer-odyssey-850_17	53	8	"	"	''
homer-odyssey-850_17	53	9	answered	answer	VBD
homer-odyssey-850_17	53	10	Penelope	penelope	NNP
homer-odyssey-850_17	53	11	;	;	:
homer-odyssey-850_17	53	12	"	"	``
homer-odyssey-850_17	53	13	if	if	IN
homer-odyssey-850_17	53	14	your	-PRON-	PRP$
homer-odyssey-850_17	53	15	words	word	NNS
homer-odyssey-850_17	53	16	come	come	VBP
homer-odyssey-850_17	53	17	true	true	JJ
homer-odyssey-850_17	53	18	,	,	,
homer-odyssey-850_17	53	19	you	-PRON-	PRP
homer-odyssey-850_17	53	20	shall	shall	MD
homer-odyssey-850_17	53	21	have	have	VB
homer-odyssey-850_17	53	22	such	such	JJ
homer-odyssey-850_17	53	23	gifts	gift	NNS
homer-odyssey-850_17	53	24	and	and	CC
homer-odyssey-850_17	53	25	such	such	JJ
homer-odyssey-850_17	53	26	good	good	JJ
homer-odyssey-850_17	53	27	will	will	NN
homer-odyssey-850_17	53	28	from	from	IN
homer-odyssey-850_17	53	29	me	-PRON-	PRP
homer-odyssey-850_17	53	30	that	that	IN
homer-odyssey-850_17	53	31	all	all	DT
homer-odyssey-850_17	53	32	who	who	WP
homer-odyssey-850_17	53	33	see	see	VBP
homer-odyssey-850_17	53	34	you	-PRON-	PRP
homer-odyssey-850_17	53	35	shall	shall	MD
homer-odyssey-850_17	53	36	congratulate	congratulate	VB
homer-odyssey-850_17	53	37	you	-PRON-	PRP
homer-odyssey-850_17	53	38	.	.	.
homer-odyssey-850_17	53	39	"	"	''
homer-odyssey-850_17	54	1	Thus	thus	RB
homer-odyssey-850_17	54	2	did	do	VBD
homer-odyssey-850_17	54	3	they	-PRON-	PRP
homer-odyssey-850_17	54	4	converse	converse	VB
homer-odyssey-850_17	54	5	.	.	.
homer-odyssey-850_17	55	1	Meanwhile	meanwhile	RB
homer-odyssey-850_17	55	2	the	the	DT
homer-odyssey-850_17	55	3	suitors	suitor	NNS
homer-odyssey-850_17	55	4	were	be	VBD
homer-odyssey-850_17	55	5	throwing	throw	VBG
homer-odyssey-850_17	55	6	discs	disc	NNS
homer-odyssey-850_17	55	7	,	,	,
homer-odyssey-850_17	55	8	or	or	CC
homer-odyssey-850_17	55	9	aiming	aim	VBG
homer-odyssey-850_17	55	10	with	with	IN
homer-odyssey-850_17	55	11	spears	spear	NNS
homer-odyssey-850_17	55	12	at	at	IN
homer-odyssey-850_17	55	13	a	a	DT
homer-odyssey-850_17	55	14	mark	mark	NN
homer-odyssey-850_17	55	15	on	on	IN
homer-odyssey-850_17	55	16	the	the	DT
homer-odyssey-850_17	55	17	levelled	level	VBN
homer-odyssey-850_17	55	18	ground	ground	NN
homer-odyssey-850_17	55	19	in	in	IN
homer-odyssey-850_17	55	20	front	front	NN
homer-odyssey-850_17	55	21	of	of	IN
homer-odyssey-850_17	55	22	the	the	DT
homer-odyssey-850_17	55	23	house	house	NN
homer-odyssey-850_17	55	24	,	,	,
homer-odyssey-850_17	55	25	and	and	CC
homer-odyssey-850_17	55	26	behaving	behave	VBG
homer-odyssey-850_17	55	27	with	with	IN
homer-odyssey-850_17	55	28	all	all	PDT
homer-odyssey-850_17	55	29	their	-PRON-	PRP$
homer-odyssey-850_17	55	30	old	old	JJ
homer-odyssey-850_17	55	31	insolence	insolence	NN
homer-odyssey-850_17	55	32	.	.	.
homer-odyssey-850_17	56	1	But	but	CC
homer-odyssey-850_17	56	2	when	when	WRB
homer-odyssey-850_17	56	3	it	-PRON-	PRP
homer-odyssey-850_17	56	4	was	be	VBD
homer-odyssey-850_17	56	5	now	now	RB
homer-odyssey-850_17	56	6	time	time	NN
homer-odyssey-850_17	56	7	for	for	IN
homer-odyssey-850_17	56	8	dinner	dinner	NN
homer-odyssey-850_17	56	9	,	,	,
homer-odyssey-850_17	56	10	and	and	CC
homer-odyssey-850_17	56	11	the	the	DT
homer-odyssey-850_17	56	12	flock	flock	NN
homer-odyssey-850_17	56	13	of	of	IN
homer-odyssey-850_17	56	14	sheep	sheep	NNS
homer-odyssey-850_17	56	15	and	and	CC
homer-odyssey-850_17	56	16	goats	goat	NNS
homer-odyssey-850_17	56	17	had	have	VBD
homer-odyssey-850_17	56	18	come	come	VBN
homer-odyssey-850_17	56	19	into	into	IN
homer-odyssey-850_17	56	20	the	the	DT
homer-odyssey-850_17	56	21	town	town	NN
homer-odyssey-850_17	56	22	from	from	IN
homer-odyssey-850_17	56	23	all	all	PDT
homer-odyssey-850_17	56	24	the	the	DT
homer-odyssey-850_17	56	25	country	country	NN
homer-odyssey-850_17	56	26	round	round	NN
homer-odyssey-850_17	56	27	,	,	,
homer-odyssey-850_17	56	28	{	{	-LRB-
homer-odyssey-850_17	56	29	140	140	CD
homer-odyssey-850_17	56	30	}	}	-RRB-
homer-odyssey-850_17	56	31	with	with	IN
homer-odyssey-850_17	56	32	their	-PRON-	PRP$
homer-odyssey-850_17	56	33	shepherds	shepherd	NNS
homer-odyssey-850_17	56	34	as	as	IN
homer-odyssey-850_17	56	35	usual	usual	JJ
homer-odyssey-850_17	56	36	,	,	,
homer-odyssey-850_17	56	37	then	then	RB
homer-odyssey-850_17	56	38	Medon	medon	NNP
homer-odyssey-850_17	56	39	,	,	,
homer-odyssey-850_17	56	40	who	who	WP
homer-odyssey-850_17	56	41	was	be	VBD
homer-odyssey-850_17	56	42	their	-PRON-	PRP$
homer-odyssey-850_17	56	43	favourite	favourite	JJ
homer-odyssey-850_17	56	44	servant	servant	NN
homer-odyssey-850_17	56	45	,	,	,
homer-odyssey-850_17	56	46	and	and	CC
homer-odyssey-850_17	56	47	who	who	WP
homer-odyssey-850_17	56	48	waited	wait	VBD
homer-odyssey-850_17	56	49	upon	upon	IN
homer-odyssey-850_17	56	50	them	-PRON-	PRP
homer-odyssey-850_17	56	51	at	at	IN
homer-odyssey-850_17	56	52	table	table	NN
homer-odyssey-850_17	56	53	,	,	,
homer-odyssey-850_17	56	54	said	say	VBD
homer-odyssey-850_17	56	55	,	,	,
homer-odyssey-850_17	56	56	"	"	``
homer-odyssey-850_17	56	57	Now	now	RB
homer-odyssey-850_17	56	58	then	then	RB
homer-odyssey-850_17	56	59	,	,	,
homer-odyssey-850_17	56	60	my	-PRON-	PRP$
homer-odyssey-850_17	56	61	young	young	JJ
homer-odyssey-850_17	56	62	masters	master	NNS
homer-odyssey-850_17	56	63	,	,	,
homer-odyssey-850_17	56	64	you	-PRON-	PRP
homer-odyssey-850_17	56	65	have	have	VBP
homer-odyssey-850_17	56	66	had	have	VBN
homer-odyssey-850_17	56	67	enough	enough	JJ
homer-odyssey-850_17	56	68	sport	sport	NN
homer-odyssey-850_17	56	69	,	,	,
homer-odyssey-850_17	56	70	so	so	CC
homer-odyssey-850_17	56	71	come	come	VB
homer-odyssey-850_17	56	72	inside	inside	RB
homer-odyssey-850_17	56	73	that	that	IN
homer-odyssey-850_17	56	74	we	-PRON-	PRP
homer-odyssey-850_17	56	75	may	may	MD
homer-odyssey-850_17	56	76	get	get	VB
homer-odyssey-850_17	56	77	dinner	dinner	NN
homer-odyssey-850_17	56	78	ready	ready	JJ
homer-odyssey-850_17	56	79	.	.	.
homer-odyssey-850_17	57	1	Dinner	dinner	NN
homer-odyssey-850_17	57	2	is	be	VBZ
homer-odyssey-850_17	57	3	not	not	RB
homer-odyssey-850_17	57	4	a	a	DT
homer-odyssey-850_17	57	5	bad	bad	JJ
homer-odyssey-850_17	57	6	thing	thing	NN
homer-odyssey-850_17	57	7	,	,	,
homer-odyssey-850_17	57	8	at	at	IN
homer-odyssey-850_17	57	9	dinner	dinner	NN
homer-odyssey-850_17	57	10	time	time	NN
homer-odyssey-850_17	57	11	.	.	.
homer-odyssey-850_17	57	12	"	"	''
homer-odyssey-850_17	58	1	They	-PRON-	PRP
homer-odyssey-850_17	58	2	left	leave	VBD
homer-odyssey-850_17	58	3	their	-PRON-	PRP$
homer-odyssey-850_17	58	4	sports	sport	NNS
homer-odyssey-850_17	58	5	as	as	IN
homer-odyssey-850_17	58	6	he	-PRON-	PRP
homer-odyssey-850_17	58	7	told	tell	VBD
homer-odyssey-850_17	58	8	them	-PRON-	PRP
homer-odyssey-850_17	58	9	,	,	,
homer-odyssey-850_17	58	10	and	and	CC
homer-odyssey-850_17	58	11	when	when	WRB
homer-odyssey-850_17	58	12	they	-PRON-	PRP
homer-odyssey-850_17	58	13	were	be	VBD
homer-odyssey-850_17	58	14	within	within	IN
homer-odyssey-850_17	58	15	the	the	DT
homer-odyssey-850_17	58	16	house	house	NN
homer-odyssey-850_17	58	17	,	,	,
homer-odyssey-850_17	58	18	they	-PRON-	PRP
homer-odyssey-850_17	58	19	laid	lay	VBD
homer-odyssey-850_17	58	20	their	-PRON-	PRP$
homer-odyssey-850_17	58	21	cloaks	cloak	NNS
homer-odyssey-850_17	58	22	on	on	IN
homer-odyssey-850_17	58	23	the	the	DT
homer-odyssey-850_17	58	24	benches	bench	NNS
homer-odyssey-850_17	58	25	and	and	CC
homer-odyssey-850_17	58	26	seats	seat	NNS
homer-odyssey-850_17	58	27	inside	inside	RB
homer-odyssey-850_17	58	28	,	,	,
homer-odyssey-850_17	58	29	and	and	CC
homer-odyssey-850_17	58	30	then	then	RB
homer-odyssey-850_17	58	31	sacrificed	sacrifice	VBD
homer-odyssey-850_17	58	32	some	some	DT
homer-odyssey-850_17	58	33	sheep	sheep	NN
homer-odyssey-850_17	58	34	,	,	,
homer-odyssey-850_17	58	35	goats	goat	NNS
homer-odyssey-850_17	58	36	,	,	,
homer-odyssey-850_17	58	37	pigs	pig	NNS
homer-odyssey-850_17	58	38	,	,	,
homer-odyssey-850_17	58	39	and	and	CC
homer-odyssey-850_17	58	40	a	a	DT
homer-odyssey-850_17	58	41	heifer	heifer	NN
homer-odyssey-850_17	58	42	,	,	,
homer-odyssey-850_17	58	43	all	all	DT
homer-odyssey-850_17	58	44	of	of	IN
homer-odyssey-850_17	58	45	them	-PRON-	PRP
homer-odyssey-850_17	58	46	fat	fat	JJ
homer-odyssey-850_17	58	47	and	and	CC
homer-odyssey-850_17	58	48	well	well	RB
homer-odyssey-850_17	58	49	grown	grow	VBN
homer-odyssey-850_17	58	50	.	.	.
homer-odyssey-850_17	59	1	{	{	-LRB-
homer-odyssey-850_17	59	2	141	141	CD
homer-odyssey-850_17	59	3	}	}	-RRB-
homer-odyssey-850_17	59	4	Thus	thus	RB
homer-odyssey-850_17	59	5	they	-PRON-	PRP
homer-odyssey-850_17	59	6	made	make	VBD
homer-odyssey-850_17	59	7	ready	ready	JJ
homer-odyssey-850_17	59	8	for	for	IN
homer-odyssey-850_17	59	9	their	-PRON-	PRP$
homer-odyssey-850_17	59	10	meal	meal	NN
homer-odyssey-850_17	59	11	.	.	.
homer-odyssey-850_17	60	1	In	in	IN
homer-odyssey-850_17	60	2	the	the	DT
homer-odyssey-850_17	60	3	meantime	meantime	NN
homer-odyssey-850_17	60	4	Ulysses	ulysses	NNPS
homer-odyssey-850_17	60	5	and	and	CC
homer-odyssey-850_17	60	6	the	the	DT
homer-odyssey-850_17	60	7	swineherd	swineherd	NN
homer-odyssey-850_17	60	8	were	be	VBD
homer-odyssey-850_17	60	9	about	about	IN
homer-odyssey-850_17	60	10	starting	start	VBG
homer-odyssey-850_17	60	11	for	for	IN
homer-odyssey-850_17	60	12	the	the	DT
homer-odyssey-850_17	60	13	town	town	NN
homer-odyssey-850_17	60	14	,	,	,
homer-odyssey-850_17	60	15	and	and	CC
homer-odyssey-850_17	60	16	the	the	DT
homer-odyssey-850_17	60	17	swineherd	swineherd	NN
homer-odyssey-850_17	60	18	said	say	VBD
homer-odyssey-850_17	60	19	,	,	,
homer-odyssey-850_17	60	20	"	"	``
homer-odyssey-850_17	60	21	Stranger	stranger	NNP
homer-odyssey-850_17	60	22	,	,	,
homer-odyssey-850_17	60	23	I	-PRON-	PRP
homer-odyssey-850_17	60	24	suppose	suppose	VBP
homer-odyssey-850_17	60	25	you	-PRON-	PRP
homer-odyssey-850_17	60	26	still	still	RB
homer-odyssey-850_17	60	27	want	want	VBP
homer-odyssey-850_17	60	28	to	to	TO
homer-odyssey-850_17	60	29	go	go	VB
homer-odyssey-850_17	60	30	to	to	IN
homer-odyssey-850_17	60	31	town	town	NN
homer-odyssey-850_17	60	32	to-	to-	JJR
homer-odyssey-850_17	60	33	day	day	NN
homer-odyssey-850_17	60	34	,	,	,
homer-odyssey-850_17	60	35	as	as	IN
homer-odyssey-850_17	60	36	my	-PRON-	PRP$
homer-odyssey-850_17	60	37	master	master	NN
homer-odyssey-850_17	60	38	said	say	VBD
homer-odyssey-850_17	60	39	you	-PRON-	PRP
homer-odyssey-850_17	60	40	were	be	VBD
homer-odyssey-850_17	60	41	to	to	TO
homer-odyssey-850_17	60	42	do	do	VB
homer-odyssey-850_17	60	43	;	;	:
homer-odyssey-850_17	60	44	for	for	IN
homer-odyssey-850_17	60	45	my	-PRON-	PRP$
homer-odyssey-850_17	60	46	own	own	JJ
homer-odyssey-850_17	60	47	part	part	NN
homer-odyssey-850_17	60	48	I	-PRON-	PRP
homer-odyssey-850_17	60	49	should	should	MD
homer-odyssey-850_17	60	50	have	have	VB
homer-odyssey-850_17	60	51	liked	like	VBN
homer-odyssey-850_17	60	52	you	-PRON-	PRP
homer-odyssey-850_17	60	53	to	to	TO
homer-odyssey-850_17	60	54	stay	stay	VB
homer-odyssey-850_17	60	55	here	here	RB
homer-odyssey-850_17	60	56	as	as	IN
homer-odyssey-850_17	60	57	a	a	DT
homer-odyssey-850_17	60	58	station	station	NN
homer-odyssey-850_17	60	59	hand	hand	NN
homer-odyssey-850_17	60	60	,	,	,
homer-odyssey-850_17	60	61	but	but	CC
homer-odyssey-850_17	60	62	I	-PRON-	PRP
homer-odyssey-850_17	60	63	must	must	MD
homer-odyssey-850_17	60	64	do	do	VB
homer-odyssey-850_17	60	65	as	as	IN
homer-odyssey-850_17	60	66	my	-PRON-	PRP$
homer-odyssey-850_17	60	67	master	master	NN
homer-odyssey-850_17	60	68	tells	tell	VBZ
homer-odyssey-850_17	60	69	me	-PRON-	PRP
homer-odyssey-850_17	60	70	,	,	,
homer-odyssey-850_17	60	71	or	or	CC
homer-odyssey-850_17	60	72	he	-PRON-	PRP
homer-odyssey-850_17	60	73	will	will	MD
homer-odyssey-850_17	60	74	scold	scold	VB
homer-odyssey-850_17	60	75	me	-PRON-	PRP
homer-odyssey-850_17	60	76	later	later	RB
homer-odyssey-850_17	60	77	on	on	RB
homer-odyssey-850_17	60	78	,	,	,
homer-odyssey-850_17	60	79	and	and	CC
homer-odyssey-850_17	60	80	a	a	DT
homer-odyssey-850_17	60	81	scolding	scolding	NN
homer-odyssey-850_17	60	82	from	from	IN
homer-odyssey-850_17	60	83	one	one	PRP
homer-odyssey-850_17	60	84	's	's	POS
homer-odyssey-850_17	60	85	master	master	NN
homer-odyssey-850_17	60	86	is	be	VBZ
homer-odyssey-850_17	60	87	a	a	DT
homer-odyssey-850_17	60	88	very	very	RB
homer-odyssey-850_17	60	89	serious	serious	JJ
homer-odyssey-850_17	60	90	thing	thing	NN
homer-odyssey-850_17	60	91	.	.	.
homer-odyssey-850_17	61	1	Let	let	VB
homer-odyssey-850_17	61	2	us	-PRON-	PRP
homer-odyssey-850_17	61	3	then	then	RB
homer-odyssey-850_17	61	4	be	be	VB
homer-odyssey-850_17	61	5	off	off	RB
homer-odyssey-850_17	61	6	,	,	,
homer-odyssey-850_17	61	7	for	for	IN
homer-odyssey-850_17	61	8	it	-PRON-	PRP
homer-odyssey-850_17	61	9	is	be	VBZ
homer-odyssey-850_17	61	10	now	now	RB
homer-odyssey-850_17	61	11	broad	broad	JJ
homer-odyssey-850_17	61	12	day	day	NN
homer-odyssey-850_17	61	13	;	;	:
homer-odyssey-850_17	61	14	it	-PRON-	PRP
homer-odyssey-850_17	61	15	will	will	MD
homer-odyssey-850_17	61	16	be	be	VB
homer-odyssey-850_17	61	17	night	night	NN
homer-odyssey-850_17	61	18	again	again	RB
homer-odyssey-850_17	61	19	directly	directly	RB
homer-odyssey-850_17	61	20	and	and	CC
homer-odyssey-850_17	61	21	then	then	RB
homer-odyssey-850_17	61	22	you	-PRON-	PRP
homer-odyssey-850_17	61	23	will	will	MD
homer-odyssey-850_17	61	24	find	find	VB
homer-odyssey-850_17	61	25	it	-PRON-	PRP
[...]
homer-odyssey-850_17	191	28	suitors	suitor	NNS
homer-odyssey-850_17	191	29	,	,	,
homer-odyssey-850_17	191	30	for	for	IN
homer-odyssey-850_17	191	31	their	-PRON-	PRP$
homer-odyssey-850_17	191	32	pride	pride	NN
homer-odyssey-850_17	191	33	and	and	CC
homer-odyssey-850_17	191	34	insolence	insolence	NN
homer-odyssey-850_17	191	35	reach	reach	VBP
homer-odyssey-850_17	191	36	heaven	heaven	NNP
homer-odyssey-850_17	191	37	.	.	.
homer-odyssey-850_17	192	1	Just	just	RB
homer-odyssey-850_17	192	2	now	now	RB
homer-odyssey-850_17	192	3	,	,	,
homer-odyssey-850_17	192	4	moreover	moreover	RB
homer-odyssey-850_17	192	5	,	,	,
homer-odyssey-850_17	192	6	as	as	IN
homer-odyssey-850_17	192	7	I	-PRON-	PRP
homer-odyssey-850_17	192	8	was	be	VBD
homer-odyssey-850_17	192	9	going	go	VBG
homer-odyssey-850_17	192	10	about	about	IN
homer-odyssey-850_17	192	11	the	the	DT
homer-odyssey-850_17	192	12	house	house	NN
homer-odyssey-850_17	192	13	without	without	IN
homer-odyssey-850_17	192	14	doing	do	VBG
homer-odyssey-850_17	192	15	any	any	DT
homer-odyssey-850_17	192	16	harm	harm	NN
homer-odyssey-850_17	192	17	,	,	,
homer-odyssey-850_17	192	18	a	a	DT
homer-odyssey-850_17	192	19	man	man	NN
homer-odyssey-850_17	192	20	gave	give	VBD
homer-odyssey-850_17	192	21	me	-PRON-	PRP
homer-odyssey-850_17	192	22	a	a	DT
homer-odyssey-850_17	192	23	blow	blow	NN
homer-odyssey-850_17	192	24	that	that	WDT
homer-odyssey-850_17	192	25	hurt	hurt	VBD
homer-odyssey-850_17	192	26	me	-PRON-	PRP
homer-odyssey-850_17	192	27	very	very	RB
homer-odyssey-850_17	192	28	much	much	RB
homer-odyssey-850_17	192	29	,	,	,
homer-odyssey-850_17	192	30	but	but	CC
homer-odyssey-850_17	192	31	neither	neither	CC
homer-odyssey-850_17	192	32	Telemachus	telemachus	NNP
homer-odyssey-850_17	192	33	nor	nor	CC
homer-odyssey-850_17	192	34	any	any	DT
homer-odyssey-850_17	192	35	one	one	NN
homer-odyssey-850_17	192	36	else	else	RB
homer-odyssey-850_17	192	37	defended	defend	VBD
homer-odyssey-850_17	192	38	me	-PRON-	PRP
homer-odyssey-850_17	192	39	.	.	.
homer-odyssey-850_17	193	1	Tell	tell	VB
homer-odyssey-850_17	193	2	Penelope	penelope	NNP
homer-odyssey-850_17	193	3	,	,	,
homer-odyssey-850_17	193	4	therefore	therefore	RB
homer-odyssey-850_17	193	5	,	,	,
homer-odyssey-850_17	193	6	to	to	TO
homer-odyssey-850_17	193	7	be	be	VB
homer-odyssey-850_17	193	8	patient	patient	JJ
homer-odyssey-850_17	193	9	and	and	CC
homer-odyssey-850_17	193	10	wait	wait	VB
homer-odyssey-850_17	193	11	till	till	IN
homer-odyssey-850_17	193	12	sundown	sundown	JJ
homer-odyssey-850_17	193	13	.	.	.
homer-odyssey-850_17	194	1	Let	let	VB
homer-odyssey-850_17	194	2	her	-PRON-	PRP
homer-odyssey-850_17	194	3	give	give	VB
homer-odyssey-850_17	194	4	me	-PRON-	PRP
homer-odyssey-850_17	194	5	a	a	DT
homer-odyssey-850_17	194	6	seat	seat	NN
homer-odyssey-850_17	194	7	close	close	RB
homer-odyssey-850_17	194	8	up	up	RP
homer-odyssey-850_17	194	9	to	to	IN
homer-odyssey-850_17	194	10	the	the	DT
homer-odyssey-850_17	194	11	fire	fire	NN
homer-odyssey-850_17	194	12	,	,	,
homer-odyssey-850_17	194	13	for	for	IN
homer-odyssey-850_17	194	14	my	-PRON-	PRP$
homer-odyssey-850_17	194	15	clothes	clothe	NNS
homer-odyssey-850_17	194	16	are	be	VBP
homer-odyssey-850_17	194	17	worn	wear	VBN
homer-odyssey-850_17	194	18	very	very	RB
homer-odyssey-850_17	194	19	thin--	thin--	NN
homer-odyssey-850_17	194	20	you	-PRON-	PRP
homer-odyssey-850_17	194	21	know	know	VBP
homer-odyssey-850_17	194	22	they	-PRON-	PRP
homer-odyssey-850_17	194	23	are	be	VBP
homer-odyssey-850_17	194	24	,	,	,
homer-odyssey-850_17	194	25	for	for	IN
homer-odyssey-850_17	194	26	you	-PRON-	PRP
homer-odyssey-850_17	194	27	have	have	VBP
homer-odyssey-850_17	194	28	seen	see	VBN
homer-odyssey-850_17	194	29	them	-PRON-	PRP
homer-odyssey-850_17	194	30	ever	ever	RB
homer-odyssey-850_17	194	31	since	since	IN
homer-odyssey-850_17	194	32	I	-PRON-	PRP
homer-odyssey-850_17	194	33	first	first	RB
homer-odyssey-850_17	194	34	asked	ask	VBD
homer-odyssey-850_17	194	35	you	-PRON-	PRP
homer-odyssey-850_17	194	36	to	to	TO
homer-odyssey-850_17	194	37	help	help	VB
homer-odyssey-850_17	194	38	me--	me--	VB
homer-odyssey-850_17	194	39	she	-PRON-	PRP
homer-odyssey-850_17	194	40	can	can	MD
homer-odyssey-850_17	194	41	then	then	RB
homer-odyssey-850_17	194	42	ask	ask	VB
homer-odyssey-850_17	194	43	me	-PRON-	PRP
homer-odyssey-850_17	194	44	about	about	IN
homer-odyssey-850_17	194	45	the	the	DT
homer-odyssey-850_17	194	46	return	return	NN
homer-odyssey-850_17	194	47	of	of	IN
homer-odyssey-850_17	194	48	her	-PRON-	PRP$
homer-odyssey-850_17	194	49	husband	husband	NN
homer-odyssey-850_17	194	50	.	.	.
homer-odyssey-850_17	194	51	"	"	''
homer-odyssey-850_17	195	1	The	the	DT
homer-odyssey-850_17	195	2	swineherd	swineherd	NN
homer-odyssey-850_17	195	3	went	go	VBD
homer-odyssey-850_17	195	4	back	back	RB
homer-odyssey-850_17	195	5	when	when	WRB
homer-odyssey-850_17	195	6	he	-PRON-	PRP
homer-odyssey-850_17	195	7	heard	hear	VBD
homer-odyssey-850_17	195	8	this	this	DT
homer-odyssey-850_17	195	9	,	,	,
homer-odyssey-850_17	195	10	and	and	CC
homer-odyssey-850_17	195	11	Penelope	penelope	NNP
homer-odyssey-850_17	195	12	said	say	VBD
homer-odyssey-850_17	195	13	as	as	IN
homer-odyssey-850_17	195	14	she	-PRON-	PRP
homer-odyssey-850_17	195	15	saw	see	VBD
homer-odyssey-850_17	195	16	him	-PRON-	PRP
homer-odyssey-850_17	195	17	cross	cross	VB
homer-odyssey-850_17	195	18	the	the	DT
homer-odyssey-850_17	195	19	threshold	threshold	NN
homer-odyssey-850_17	195	20	,	,	,
homer-odyssey-850_17	195	21	"	"	``
homer-odyssey-850_17	195	22	Why	why	WRB
homer-odyssey-850_17	195	23	do	do	VBP
homer-odyssey-850_17	195	24	you	-PRON-	PRP
homer-odyssey-850_17	195	25	not	not	RB
homer-odyssey-850_17	195	26	bring	bring	VB
homer-odyssey-850_17	195	27	him	-PRON-	PRP
homer-odyssey-850_17	195	28	here	here	RB
homer-odyssey-850_17	195	29	,	,	,
homer-odyssey-850_17	195	30	Eumaeus	eumaeus	NNP
homer-odyssey-850_17	195	31	?	?	.
homer-odyssey-850_17	196	1	Is	be	VBZ
homer-odyssey-850_17	196	2	he	-PRON-	PRP
homer-odyssey-850_17	196	3	afraid	afraid	JJ
homer-odyssey-850_17	196	4	that	that	IN
homer-odyssey-850_17	196	5	some	some	DT
homer-odyssey-850_17	196	6	one	one	NN
homer-odyssey-850_17	196	7	will	will	MD
homer-odyssey-850_17	196	8	ill-	ill-	VB
homer-odyssey-850_17	196	9	treat	treat	VB
homer-odyssey-850_17	196	10	him	-PRON-	PRP
homer-odyssey-850_17	196	11	,	,	,
homer-odyssey-850_17	196	12	or	or	CC
homer-odyssey-850_17	196	13	is	be	VBZ
homer-odyssey-850_17	196	14	he	-PRON-	PRP
homer-odyssey-850_17	196	15	shy	shy	JJ
homer-odyssey-850_17	196	16	of	of	IN
homer-odyssey-850_17	196	17	coming	come	VBG
homer-odyssey-850_17	196	18	inside	inside	IN
homer-odyssey-850_17	196	19	the	the	DT
homer-odyssey-850_17	196	20	house	house	NN
homer-odyssey-850_17	196	21	at	at	RB
homer-odyssey-850_17	196	22	all	all	RB
homer-odyssey-850_17	196	23	?	?	.
homer-odyssey-850_17	197	1	Beggars	beggar	NNS
homer-odyssey-850_17	197	2	should	should	MD
homer-odyssey-850_17	197	3	not	not	RB
homer-odyssey-850_17	197	4	be	be	VB
homer-odyssey-850_17	197	5	shamefaced	shamefac	VBN
homer-odyssey-850_17	197	6	.	.	.
homer-odyssey-850_17	197	7	"	"	''
homer-odyssey-850_17	198	1	To	to	IN
homer-odyssey-850_17	198	2	this	this	DT
homer-odyssey-850_17	198	3	you	-PRON-	PRP
homer-odyssey-850_17	198	4	answered	answer	VBD
homer-odyssey-850_17	198	5	,	,	,
homer-odyssey-850_17	198	6	O	o	UH
homer-odyssey-850_17	198	7	swineherd	swineherd	NN
homer-odyssey-850_17	198	8	Eumaeus	eumaeus	NNP
homer-odyssey-850_17	198	9	,	,	,
homer-odyssey-850_17	198	10	"	"	``
homer-odyssey-850_17	198	11	The	the	DT
homer-odyssey-850_17	198	12	stranger	stranger	NN
homer-odyssey-850_17	198	13	is	be	VBZ
homer-odyssey-850_17	198	14	quite	quite	RB
homer-odyssey-850_17	198	15	reasonable	reasonable	JJ
homer-odyssey-850_17	198	16	.	.	.
homer-odyssey-850_17	199	1	He	-PRON-	PRP
homer-odyssey-850_17	199	2	is	be	VBZ
homer-odyssey-850_17	199	3	avoiding	avoid	VBG
homer-odyssey-850_17	199	4	the	the	DT
homer-odyssey-850_17	199	5	suitors	suitor	NNS
homer-odyssey-850_17	199	6	,	,	,
homer-odyssey-850_17	199	7	and	and	CC
homer-odyssey-850_17	199	8	is	be	VBZ
homer-odyssey-850_17	199	9	only	only	RB
homer-odyssey-850_17	199	10	doing	do	VBG
homer-odyssey-850_17	199	11	what	what	WP
homer-odyssey-850_17	199	12	any	any	DT
homer-odyssey-850_17	199	13	one	one	NN
homer-odyssey-850_17	199	14	else	else	RB
homer-odyssey-850_17	199	15	would	would	MD
homer-odyssey-850_17	199	16	do	do	VB
homer-odyssey-850_17	199	17	.	.	.
homer-odyssey-850_17	200	1	He	-PRON-	PRP
homer-odyssey-850_17	200	2	asks	ask	VBZ
homer-odyssey-850_17	200	3	you	-PRON-	PRP
homer-odyssey-850_17	200	4	to	to	TO
homer-odyssey-850_17	200	5	wait	wait	VB
homer-odyssey-850_17	200	6	till	till	IN
homer-odyssey-850_17	200	7	sundown	sundown	NN
homer-odyssey-850_17	200	8	,	,	,
homer-odyssey-850_17	200	9	and	and	CC
homer-odyssey-850_17	200	10	it	-PRON-	PRP
homer-odyssey-850_17	200	11	will	will	MD
homer-odyssey-850_17	200	12	be	be	VB
homer-odyssey-850_17	200	13	much	much	RB
homer-odyssey-850_17	200	14	better	good	JJR
homer-odyssey-850_17	200	15	,	,	,
homer-odyssey-850_17	200	16	madam	madam	NN
homer-odyssey-850_17	200	17	,	,	,
homer-odyssey-850_17	200	18	that	that	IN
homer-odyssey-850_17	200	19	you	-PRON-	PRP
homer-odyssey-850_17	200	20	should	should	MD
homer-odyssey-850_17	200	21	have	have	VB
homer-odyssey-850_17	200	22	him	-PRON-	PRP
homer-odyssey-850_17	200	23	all	all	DT
homer-odyssey-850_17	200	24	to	to	IN
homer-odyssey-850_17	200	25	yourself	-PRON-	PRP
homer-odyssey-850_17	200	26	,	,	,
homer-odyssey-850_17	200	27	when	when	WRB
homer-odyssey-850_17	200	28	you	-PRON-	PRP
homer-odyssey-850_17	200	29	can	can	MD
homer-odyssey-850_17	200	30	hear	hear	VB
homer-odyssey-850_17	200	31	him	-PRON-	PRP
homer-odyssey-850_17	200	32	and	and	CC
homer-odyssey-850_17	200	33	talk	talk	VB
homer-odyssey-850_17	200	34	to	to	IN
homer-odyssey-850_17	200	35	him	-PRON-	PRP
homer-odyssey-850_17	200	36	as	as	IN
homer-odyssey-850_17	200	37	you	-PRON-	PRP
homer-odyssey-850_17	200	38	will	will	MD
homer-odyssey-850_17	200	39	.	.	.
homer-odyssey-850_17	200	40	"	"	''
homer-odyssey-850_17	201	1	"	"	``
homer-odyssey-850_17	201	2	The	the	DT
homer-odyssey-850_17	201	3	man	man	NN
homer-odyssey-850_17	201	4	is	be	VBZ
homer-odyssey-850_17	201	5	no	no	DT
homer-odyssey-850_17	201	6	fool	fool	NN
homer-odyssey-850_17	201	7	,	,	,
homer-odyssey-850_17	201	8	"	"	''
homer-odyssey-850_17	201	9	answered	answer	VBD
homer-odyssey-850_17	201	10	Penelope	penelope	NNP
homer-odyssey-850_17	201	11	,	,	,
homer-odyssey-850_17	201	12	"	"	''
homer-odyssey-850_17	201	13	it	-PRON-	PRP
homer-odyssey-850_17	201	14	would	would	MD
homer-odyssey-850_17	201	15	very	very	RB
homer-odyssey-850_17	201	16	likely	likely	RB
homer-odyssey-850_17	201	17	be	be	VB
homer-odyssey-850_17	201	18	as	as	IN
homer-odyssey-850_17	201	19	he	-PRON-	PRP
homer-odyssey-850_17	201	20	says	say	VBZ
homer-odyssey-850_17	201	21	,	,	,
homer-odyssey-850_17	201	22	for	for	IN
homer-odyssey-850_17	201	23	there	there	EX
homer-odyssey-850_17	201	24	are	be	VBP
homer-odyssey-850_17	201	25	no	no	DT
homer-odyssey-850_17	201	26	such	such	JJ
homer-odyssey-850_17	201	27	abominable	abominable	JJ
homer-odyssey-850_17	201	28	people	people	NNS
homer-odyssey-850_17	201	29	in	in	IN
homer-odyssey-850_17	201	30	the	the	DT
homer-odyssey-850_17	201	31	whole	whole	JJ
homer-odyssey-850_17	201	32	world	world	NN
homer-odyssey-850_17	201	33	as	as	IN
homer-odyssey-850_17	201	34	these	these	DT
homer-odyssey-850_17	201	35	men	man	NNS
homer-odyssey-850_17	201	36	are	be	VBP
homer-odyssey-850_17	201	37	.	.	.
homer-odyssey-850_17	201	38	"	"	''
homer-odyssey-850_17	202	1	When	when	WRB
homer-odyssey-850_17	202	2	she	-PRON-	PRP
homer-odyssey-850_17	202	3	had	have	VBD
homer-odyssey-850_17	202	4	done	do	VBN
homer-odyssey-850_17	202	5	speaking	speak	VBG
homer-odyssey-850_17	202	6	Eumaeus	eumaeus	NNP
homer-odyssey-850_17	202	7	went	go	VBD
homer-odyssey-850_17	202	8	back	back	RB
homer-odyssey-850_17	202	9	to	to	IN
homer-odyssey-850_17	202	10	the	the	DT
homer-odyssey-850_17	202	11	suitors	suitor	NNS
homer-odyssey-850_17	202	12	,	,	,
homer-odyssey-850_17	202	13	for	for	IN
homer-odyssey-850_17	202	14	he	-PRON-	PRP
homer-odyssey-850_17	202	15	had	have	VBD
homer-odyssey-850_17	202	16	explained	explain	VBN
homer-odyssey-850_17	202	17	everything	everything	NN
homer-odyssey-850_17	202	18	.	.	.
homer-odyssey-850_17	203	1	Then	then	RB
homer-odyssey-850_17	203	2	he	-PRON-	PRP
homer-odyssey-850_17	203	3	went	go	VBD
homer-odyssey-850_17	203	4	up	up	RP
homer-odyssey-850_17	203	5	to	to	IN
homer-odyssey-850_17	203	6	Telemachus	telemachus	NNP
homer-odyssey-850_17	203	7	and	and	CC
homer-odyssey-850_17	203	8	said	say	VBD
homer-odyssey-850_17	203	9	in	in	IN
homer-odyssey-850_17	203	10	his	-PRON-	PRP$
homer-odyssey-850_17	203	11	ear	ear	NN
homer-odyssey-850_17	203	12	so	so	IN
homer-odyssey-850_17	203	13	that	that	IN
homer-odyssey-850_17	203	14	none	none	NN
homer-odyssey-850_17	203	15	could	could	MD
homer-odyssey-850_17	203	16	overhear	overhear	VB
homer-odyssey-850_17	203	17	him	-PRON-	PRP
homer-odyssey-850_17	203	18	,	,	,
homer-odyssey-850_17	203	19	"	"	``
homer-odyssey-850_17	203	20	My	-PRON-	PRP$
homer-odyssey-850_17	203	21	dear	dear	JJ
homer-odyssey-850_17	203	22	sir	sir	NN
homer-odyssey-850_17	203	23	,	,	,
homer-odyssey-850_17	203	24	I	-PRON-	PRP
homer-odyssey-850_17	203	25	will	will	MD
homer-odyssey-850_17	203	26	now	now	RB
homer-odyssey-850_17	203	27	go	go	VB
homer-odyssey-850_17	203	28	back	back	RB
homer-odyssey-850_17	203	29	to	to	IN
homer-odyssey-850_17	203	30	the	the	DT
homer-odyssey-850_17	203	31	pigs	pig	NNS
homer-odyssey-850_17	203	32	,	,	,
homer-odyssey-850_17	203	33	to	to	TO
homer-odyssey-850_17	203	34	see	see	VB
homer-odyssey-850_17	203	35	after	after	IN
homer-odyssey-850_17	203	36	your	-PRON-	PRP$
homer-odyssey-850_17	203	37	property	property	NN
homer-odyssey-850_17	203	38	and	and	CC
homer-odyssey-850_17	203	39	my	-PRON-	PRP$
homer-odyssey-850_17	203	40	own	own	JJ
homer-odyssey-850_17	203	41	business	business	NN
homer-odyssey-850_17	203	42	.	.	.
homer-odyssey-850_17	204	1	You	-PRON-	PRP
homer-odyssey-850_17	204	2	will	will	MD
homer-odyssey-850_17	204	3	look	look	VB
homer-odyssey-850_17	204	4	to	to	IN
homer-odyssey-850_17	204	5	what	what	WP
homer-odyssey-850_17	204	6	is	be	VBZ
homer-odyssey-850_17	204	7	going	go	VBG
homer-odyssey-850_17	204	8	on	on	RP
homer-odyssey-850_17	204	9	here	here	RB
homer-odyssey-850_17	204	10	,	,	,
homer-odyssey-850_17	204	11	but	but	CC
homer-odyssey-850_17	204	12	above	above	IN
homer-odyssey-850_17	204	13	all	all	DT
homer-odyssey-850_17	204	14	be	be	VB
homer-odyssey-850_17	204	15	careful	careful	JJ
homer-odyssey-850_17	204	16	to	to	TO
homer-odyssey-850_17	204	17	keep	keep	VB
homer-odyssey-850_17	204	18	out	out	IN
homer-odyssey-850_17	204	19	of	of	IN
homer-odyssey-850_17	204	20	danger	danger	NN
homer-odyssey-850_17	204	21	,	,	,
homer-odyssey-850_17	204	22	for	for	IN
homer-odyssey-850_17	204	23	there	there	EX
homer-odyssey-850_17	204	24	are	be	VBP
homer-odyssey-850_17	204	25	many	many	JJ
homer-odyssey-850_17	204	26	who	who	WP
homer-odyssey-850_17	204	27	bear	bear	VBP
homer-odyssey-850_17	204	28	you	-PRON-	PRP
homer-odyssey-850_17	204	29	ill	ill	JJ
homer-odyssey-850_17	204	30	will	will	NN
homer-odyssey-850_17	204	31	.	.	.
homer-odyssey-850_17	205	1	May	may	MD
homer-odyssey-850_17	205	2	Jove	jove	VB
homer-odyssey-850_17	205	3	bring	bring	VB
homer-odyssey-850_17	205	4	them	-PRON-	PRP
homer-odyssey-850_17	205	5	to	to	IN
homer-odyssey-850_17	205	6	a	a	DT
homer-odyssey-850_17	205	7	bad	bad	JJ
homer-odyssey-850_17	205	8	end	end	NN
homer-odyssey-850_17	205	9	before	before	IN
homer-odyssey-850_17	205	10	they	-PRON-	PRP
homer-odyssey-850_17	205	11	do	do	VBP
homer-odyssey-850_17	205	12	us	-PRON-	PRP
homer-odyssey-850_17	205	13	a	a	DT
homer-odyssey-850_17	205	14	mischief	mischief	NN
homer-odyssey-850_17	205	15	.	.	.
homer-odyssey-850_17	205	16	"	"	''
homer-odyssey-850_17	206	1	"	"	``
homer-odyssey-850_17	206	2	Very	very	RB
homer-odyssey-850_17	206	3	well	well	RB
homer-odyssey-850_17	206	4	,	,	,
homer-odyssey-850_17	206	5	"	"	''
homer-odyssey-850_17	206	6	replied	reply	VBD
homer-odyssey-850_17	206	7	Telemachus	telemachus	NN
homer-odyssey-850_17	206	8	,	,	,
homer-odyssey-850_17	206	9	"	"	''
homer-odyssey-850_17	206	10	go	go	VBP
homer-odyssey-850_17	206	11	home	home	RB
homer-odyssey-850_17	206	12	when	when	WRB
homer-odyssey-850_17	206	13	you	-PRON-	PRP
homer-odyssey-850_17	206	14	have	have	VBP
homer-odyssey-850_17	206	15	had	have	VBN
homer-odyssey-850_17	206	16	your	-PRON-	PRP$
homer-odyssey-850_17	206	17	dinner	dinner	NN
homer-odyssey-850_17	206	18	,	,	,
homer-odyssey-850_17	206	19	and	and	CC
homer-odyssey-850_17	206	20	in	in	IN
homer-odyssey-850_17	206	21	the	the	DT
homer-odyssey-850_17	206	22	morning	morning	NN
homer-odyssey-850_17	206	23	come	come	VBN
homer-odyssey-850_17	206	24	here	here	RB
homer-odyssey-850_17	206	25	with	with	IN
homer-odyssey-850_17	206	26	the	the	DT
homer-odyssey-850_17	206	27	victims	victim	NNS
homer-odyssey-850_17	206	28	we	-PRON-	PRP
homer-odyssey-850_17	206	29	are	be	VBP
homer-odyssey-850_17	206	30	to	to	TO
homer-odyssey-850_17	206	31	sacrifice	sacrifice	VB
homer-odyssey-850_17	206	32	for	for	IN
homer-odyssey-850_17	206	33	the	the	DT
homer-odyssey-850_17	206	34	day	day	NN
homer-odyssey-850_17	206	35	.	.	.
homer-odyssey-850_17	207	1	Leave	leave	VB
homer-odyssey-850_17	207	2	the	the	DT
homer-odyssey-850_17	207	3	rest	rest	NN
homer-odyssey-850_17	207	4	to	to	IN
homer-odyssey-850_17	207	5	heaven	heaven	NNP
homer-odyssey-850_17	207	6	and	and	CC
homer-odyssey-850_17	207	7	me	-PRON-	PRP
homer-odyssey-850_17	207	8	.	.	.
homer-odyssey-850_17	207	9	"	"	''
homer-odyssey-850_17	208	1	On	on	IN
homer-odyssey-850_17	208	2	this	this	DT
homer-odyssey-850_17	208	3	Eumaeus	eumaeus	NNP
homer-odyssey-850_17	208	4	took	take	VBD
homer-odyssey-850_17	208	5	his	-PRON-	PRP$
homer-odyssey-850_17	208	6	seat	seat	NN
homer-odyssey-850_17	208	7	again	again	RB
homer-odyssey-850_17	208	8	,	,	,
homer-odyssey-850_17	208	9	and	and	CC
homer-odyssey-850_17	208	10	when	when	WRB
homer-odyssey-850_17	208	11	he	-PRON-	PRP
homer-odyssey-850_17	208	12	had	have	VBD
homer-odyssey-850_17	208	13	finished	finish	VBN
homer-odyssey-850_17	208	14	his	-PRON-	PRP$
homer-odyssey-850_17	208	15	dinner	dinner	NN
homer-odyssey-850_17	208	16	he	-PRON-	PRP
homer-odyssey-850_17	208	17	left	leave	VBD
homer-odyssey-850_17	208	18	the	the	DT
homer-odyssey-850_17	208	19	courts	court	NNS
homer-odyssey-850_17	208	20	and	and	CC
homer-odyssey-850_17	208	21	the	the	DT
homer-odyssey-850_17	208	22	cloister	cloister	NN
homer-odyssey-850_17	208	23	with	with	IN
homer-odyssey-850_17	208	24	the	the	DT
homer-odyssey-850_17	208	25	men	man	NNS
homer-odyssey-850_17	208	26	at	at	IN
homer-odyssey-850_17	208	27	table	table	NN
homer-odyssey-850_17	208	28	,	,	,
homer-odyssey-850_17	208	29	and	and	CC
homer-odyssey-850_17	208	30	went	go	VBD
homer-odyssey-850_17	208	31	back	back	RB
homer-odyssey-850_17	208	32	to	to	IN
homer-odyssey-850_17	208	33	his	-PRON-	PRP$
homer-odyssey-850_17	208	34	pigs	pig	NNS
homer-odyssey-850_17	208	35	.	.	.
homer-odyssey-850_17	209	1	As	as	IN
homer-odyssey-850_17	209	2	for	for	IN
homer-odyssey-850_17	209	3	the	the	DT
homer-odyssey-850_17	209	4	suitors	suitor	NNS
homer-odyssey-850_17	209	5	,	,	,
homer-odyssey-850_17	209	6	they	-PRON-	PRP
homer-odyssey-850_17	209	7	presently	presently	RB
homer-odyssey-850_17	209	8	began	begin	VBD
homer-odyssey-850_17	209	9	to	to	TO
homer-odyssey-850_17	209	10	amuse	amuse	VB
homer-odyssey-850_17	209	11	themselves	-PRON-	PRP
homer-odyssey-850_17	209	12	with	with	IN
homer-odyssey-850_17	209	13	singing	singing	NN
homer-odyssey-850_17	209	14	and	and	CC
homer-odyssey-850_17	209	15	dancing	dancing	NN
homer-odyssey-850_17	209	16	,	,	,
homer-odyssey-850_17	209	17	for	for	IN
homer-odyssey-850_17	209	18	it	-PRON-	PRP
homer-odyssey-850_17	209	19	was	be	VBD
homer-odyssey-850_17	209	20	now	now	RB
homer-odyssey-850_17	209	21	getting	get	VBG
homer-odyssey-850_17	209	22	on	on	RP
homer-odyssey-850_17	209	23	towards	towards	IN
homer-odyssey-850_17	209	24	evening	evening	NN
homer-odyssey-850_17	209	25	.	.	.
