id	sid	tid	token	lemma	pos
homer-odyssey-850_16	1	1	ULYSSES	ulyss	NNS
homer-odyssey-850_16	1	2	REVEALS	reveal	VBZ
homer-odyssey-850_16	1	3	HIMSELF	himself	PRP
homer-odyssey-850_16	1	4	TO	to	TO
homer-odyssey-850_16	1	5	TELEMACHUS	telemachus	VB
homer-odyssey-850_16	1	6	.	.	.
homer-odyssey-850_16	2	1	Meanwhile	meanwhile	RB
homer-odyssey-850_16	2	2	Ulysses	ulysses	NNPS
homer-odyssey-850_16	2	3	and	and	CC
homer-odyssey-850_16	2	4	the	the	DT
homer-odyssey-850_16	2	5	swineherd	swineherd	NN
homer-odyssey-850_16	2	6	had	have	VBD
homer-odyssey-850_16	2	7	lit	light	VBN
homer-odyssey-850_16	2	8	a	a	DT
homer-odyssey-850_16	2	9	fire	fire	NN
homer-odyssey-850_16	2	10	in	in	IN
homer-odyssey-850_16	2	11	the	the	DT
homer-odyssey-850_16	2	12	hut	hut	NN
homer-odyssey-850_16	2	13	and	and	CC
homer-odyssey-850_16	2	14	were	be	VBD
homer-odyssey-850_16	2	15	were	be	VBD
homer-odyssey-850_16	2	16	getting	get	VBG
homer-odyssey-850_16	2	17	breakfast	breakfast	NN
homer-odyssey-850_16	2	18	ready	ready	JJ
homer-odyssey-850_16	2	19	at	at	IN
homer-odyssey-850_16	2	20	daybreak	daybreak	NN
homer-odyssey-850_16	2	21	,	,	,
homer-odyssey-850_16	2	22	for	for	IN
homer-odyssey-850_16	2	23	they	-PRON-	PRP
homer-odyssey-850_16	2	24	had	have	VBD
homer-odyssey-850_16	2	25	sent	send	VBN
homer-odyssey-850_16	2	26	the	the	DT
homer-odyssey-850_16	2	27	men	man	NNS
homer-odyssey-850_16	2	28	out	out	RP
homer-odyssey-850_16	2	29	with	with	IN
homer-odyssey-850_16	2	30	the	the	DT
homer-odyssey-850_16	2	31	pigs	pig	NNS
homer-odyssey-850_16	2	32	.	.	.
homer-odyssey-850_16	3	1	When	when	WRB
homer-odyssey-850_16	3	2	Telemachus	telemachus	NNP
homer-odyssey-850_16	3	3	came	come	VBD
homer-odyssey-850_16	3	4	up	up	RP
homer-odyssey-850_16	3	5	,	,	,
homer-odyssey-850_16	3	6	the	the	DT
homer-odyssey-850_16	3	7	dogs	dog	NNS
homer-odyssey-850_16	3	8	did	do	VBD
homer-odyssey-850_16	3	9	not	not	RB
homer-odyssey-850_16	3	10	bark	bark	VB
homer-odyssey-850_16	3	11	but	but	CC
homer-odyssey-850_16	3	12	fawned	fawn	VBN
homer-odyssey-850_16	3	13	upon	upon	IN
homer-odyssey-850_16	3	14	him	-PRON-	PRP
homer-odyssey-850_16	3	15	,	,	,
homer-odyssey-850_16	3	16	so	so	RB
homer-odyssey-850_16	3	17	Ulysses	ulysses	NNPS
homer-odyssey-850_16	3	18	,	,	,
homer-odyssey-850_16	3	19	hearing	hear	VBG
homer-odyssey-850_16	3	20	the	the	DT
homer-odyssey-850_16	3	21	sound	sound	NN
homer-odyssey-850_16	3	22	of	of	IN
homer-odyssey-850_16	3	23	feet	foot	NNS
homer-odyssey-850_16	3	24	and	and	CC
homer-odyssey-850_16	3	25	noticing	noticing	NN
homer-odyssey-850_16	3	26	that	that	WDT
homer-odyssey-850_16	3	27	the	the	DT
homer-odyssey-850_16	3	28	dogs	dog	NNS
homer-odyssey-850_16	3	29	did	do	VBD
homer-odyssey-850_16	3	30	not	not	RB
homer-odyssey-850_16	3	31	bark	bark	VB
homer-odyssey-850_16	3	32	,	,	,
homer-odyssey-850_16	3	33	said	say	VBD
homer-odyssey-850_16	3	34	to	to	IN
homer-odyssey-850_16	3	35	Eumaeus	eumaeus	NNP
homer-odyssey-850_16	3	36	:	:	:
homer-odyssey-850_16	3	37	"	"	``
homer-odyssey-850_16	3	38	Eumaeus	eumaeus	NNP
homer-odyssey-850_16	3	39	,	,	,
homer-odyssey-850_16	3	40	I	-PRON-	PRP
homer-odyssey-850_16	3	41	hear	hear	VBP
homer-odyssey-850_16	3	42	footsteps	footstep	NNS
homer-odyssey-850_16	3	43	;	;	:
homer-odyssey-850_16	3	44	I	-PRON-	PRP
homer-odyssey-850_16	3	45	suppose	suppose	VBP
homer-odyssey-850_16	3	46	one	one	CD
homer-odyssey-850_16	3	47	of	of	IN
homer-odyssey-850_16	3	48	your	-PRON-	PRP$
homer-odyssey-850_16	3	49	men	man	NNS
homer-odyssey-850_16	3	50	or	or	CC
homer-odyssey-850_16	3	51	some	some	DT
homer-odyssey-850_16	3	52	one	one	CD
homer-odyssey-850_16	3	53	of	of	IN
homer-odyssey-850_16	3	54	your	-PRON-	PRP$
homer-odyssey-850_16	3	55	acquaintance	acquaintance	NN
homer-odyssey-850_16	3	56	is	be	VBZ
homer-odyssey-850_16	3	57	coming	come	VBG
homer-odyssey-850_16	3	58	here	here	RB
homer-odyssey-850_16	3	59	,	,	,
homer-odyssey-850_16	3	60	for	for	IN
homer-odyssey-850_16	3	61	the	the	DT
homer-odyssey-850_16	3	62	dogs	dog	NNS
homer-odyssey-850_16	3	63	are	be	VBP
homer-odyssey-850_16	3	64	fawning	fawn	VBG
homer-odyssey-850_16	3	65	upon	upon	IN
homer-odyssey-850_16	3	66	him	-PRON-	PRP
homer-odyssey-850_16	3	67	and	and	CC
homer-odyssey-850_16	3	68	not	not	RB
homer-odyssey-850_16	3	69	barking	bark	VBG
homer-odyssey-850_16	3	70	.	.	.
homer-odyssey-850_16	3	71	"	"	''
homer-odyssey-850_16	4	1	The	the	DT
homer-odyssey-850_16	4	2	words	word	NNS
homer-odyssey-850_16	4	3	were	be	VBD
homer-odyssey-850_16	4	4	hardly	hardly	RB
homer-odyssey-850_16	4	5	out	out	IN
homer-odyssey-850_16	4	6	of	of	IN
homer-odyssey-850_16	4	7	his	-PRON-	PRP$
homer-odyssey-850_16	4	8	mouth	mouth	NN
homer-odyssey-850_16	4	9	before	before	IN
homer-odyssey-850_16	4	10	his	-PRON-	PRP$
homer-odyssey-850_16	4	11	son	son	NN
homer-odyssey-850_16	4	12	stood	stand	VBD
homer-odyssey-850_16	4	13	at	at	IN
homer-odyssey-850_16	4	14	the	the	DT
homer-odyssey-850_16	4	15	door	door	NN
homer-odyssey-850_16	4	16	.	.	.
homer-odyssey-850_16	5	1	Eumaeus	eumaeus	NNP
homer-odyssey-850_16	5	2	sprang	spring	VBD
homer-odyssey-850_16	5	3	to	to	IN
homer-odyssey-850_16	5	4	his	-PRON-	PRP$
homer-odyssey-850_16	5	5	feet	foot	NNS
homer-odyssey-850_16	5	6	,	,	,
homer-odyssey-850_16	5	7	and	and	CC
homer-odyssey-850_16	5	8	the	the	DT
homer-odyssey-850_16	5	9	bowls	bowl	NNS
homer-odyssey-850_16	5	10	in	in	IN
homer-odyssey-850_16	5	11	which	which	WDT
homer-odyssey-850_16	5	12	he	-PRON-	PRP
homer-odyssey-850_16	5	13	was	be	VBD
homer-odyssey-850_16	5	14	mixing	mix	VBG
homer-odyssey-850_16	5	15	wine	wine	NN
homer-odyssey-850_16	5	16	fell	fall	VBD
homer-odyssey-850_16	5	17	from	from	IN
homer-odyssey-850_16	5	18	his	-PRON-	PRP$
homer-odyssey-850_16	5	19	hands	hand	NNS
homer-odyssey-850_16	5	20	,	,	,
homer-odyssey-850_16	5	21	as	as	IN
homer-odyssey-850_16	5	22	he	-PRON-	PRP
homer-odyssey-850_16	5	23	made	make	VBD
homer-odyssey-850_16	5	24	towards	towards	IN
homer-odyssey-850_16	5	25	his	-PRON-	PRP$
homer-odyssey-850_16	5	26	master	master	NN
homer-odyssey-850_16	5	27	.	.	.
homer-odyssey-850_16	6	1	He	-PRON-	PRP
homer-odyssey-850_16	6	2	kissed	kiss	VBD
homer-odyssey-850_16	6	3	his	-PRON-	PRP$
homer-odyssey-850_16	6	4	head	head	NN
homer-odyssey-850_16	6	5	and	and	CC
homer-odyssey-850_16	6	6	both	both	DT
homer-odyssey-850_16	6	7	his	-PRON-	PRP$
homer-odyssey-850_16	6	8	beautiful	beautiful	JJ
homer-odyssey-850_16	6	9	eyes	eye	NNS
homer-odyssey-850_16	6	10	,	,	,
homer-odyssey-850_16	6	11	and	and	CC
homer-odyssey-850_16	6	12	wept	weep	VBD
homer-odyssey-850_16	6	13	for	for	IN
homer-odyssey-850_16	6	14	joy	joy	NN
homer-odyssey-850_16	6	15	.	.	.
homer-odyssey-850_16	7	1	A	a	DT
homer-odyssey-850_16	7	2	father	father	NN
homer-odyssey-850_16	7	3	could	could	MD
homer-odyssey-850_16	7	4	not	not	RB
homer-odyssey-850_16	7	5	be	be	VB
homer-odyssey-850_16	7	6	more	more	RBR
homer-odyssey-850_16	7	7	delighted	delighted	JJ
homer-odyssey-850_16	7	8	at	at	IN
homer-odyssey-850_16	7	9	the	the	DT
homer-odyssey-850_16	7	10	return	return	NN
homer-odyssey-850_16	7	11	of	of	IN
homer-odyssey-850_16	7	12	an	an	DT
homer-odyssey-850_16	7	13	only	only	JJ
homer-odyssey-850_16	7	14	son	son	NN
homer-odyssey-850_16	7	15	,	,	,
homer-odyssey-850_16	7	16	the	the	DT
homer-odyssey-850_16	7	17	child	child	NN
homer-odyssey-850_16	7	18	of	of	IN
homer-odyssey-850_16	7	19	his	-PRON-	PRP$
homer-odyssey-850_16	7	20	old	old	JJ
homer-odyssey-850_16	7	21	age	age	NN
homer-odyssey-850_16	7	22	,	,	,
homer-odyssey-850_16	7	23	after	after	IN
homer-odyssey-850_16	7	24	ten	ten	CD
homer-odyssey-850_16	7	25	years	year	NNS
homer-odyssey-850_16	7	26	'	'	POS
homer-odyssey-850_16	7	27	absence	absence	NN
homer-odyssey-850_16	7	28	in	in	IN
homer-odyssey-850_16	7	29	a	a	DT
homer-odyssey-850_16	7	30	foreign	foreign	JJ
homer-odyssey-850_16	7	31	country	country	NN
homer-odyssey-850_16	7	32	and	and	CC
homer-odyssey-850_16	7	33	after	after	IN
homer-odyssey-850_16	7	34	having	have	VBG
homer-odyssey-850_16	7	35	gone	go	VBN
homer-odyssey-850_16	7	36	through	through	IN
homer-odyssey-850_16	7	37	much	much	JJ
homer-odyssey-850_16	7	38	hardship	hardship	NN
homer-odyssey-850_16	7	39	.	.	.
homer-odyssey-850_16	8	1	He	-PRON-	PRP
homer-odyssey-850_16	8	2	embraced	embrace	VBD
homer-odyssey-850_16	8	3	him	-PRON-	PRP
homer-odyssey-850_16	8	4	,	,	,
homer-odyssey-850_16	8	5	kissed	kiss	VBD
homer-odyssey-850_16	8	6	him	-PRON-	PRP
homer-odyssey-850_16	8	7	all	all	RB
homer-odyssey-850_16	8	8	over	over	RB
homer-odyssey-850_16	8	9	as	as	IN
homer-odyssey-850_16	8	10	though	though	IN
homer-odyssey-850_16	8	11	he	-PRON-	PRP
homer-odyssey-850_16	8	12	had	have	VBD
homer-odyssey-850_16	8	13	come	come	VBN
homer-odyssey-850_16	8	14	back	back	RB
homer-odyssey-850_16	8	15	from	from	IN
homer-odyssey-850_16	8	16	the	the	DT
homer-odyssey-850_16	8	17	dead	dead	JJ
homer-odyssey-850_16	8	18	,	,	,
homer-odyssey-850_16	8	19	and	and	CC
homer-odyssey-850_16	8	20	spoke	speak	VBD
homer-odyssey-850_16	8	21	fondly	fondly	RB
homer-odyssey-850_16	8	22	to	to	IN
homer-odyssey-850_16	8	23	him	-PRON-	PRP
homer-odyssey-850_16	8	24	saying	say	VBG
homer-odyssey-850_16	8	25	:	:	:
homer-odyssey-850_16	8	26	"	"	``
homer-odyssey-850_16	8	27	So	so	RB
homer-odyssey-850_16	8	28	you	-PRON-	PRP
homer-odyssey-850_16	8	29	are	be	VBP
homer-odyssey-850_16	8	30	come	come	VBN
homer-odyssey-850_16	8	31	,	,	,
homer-odyssey-850_16	8	32	Telemachus	telemachus	NNP
homer-odyssey-850_16	8	33	,	,	,
homer-odyssey-850_16	8	34	light	light	NN
homer-odyssey-850_16	8	35	of	of	IN
homer-odyssey-850_16	8	36	my	-PRON-	PRP$
homer-odyssey-850_16	8	37	eyes	eye	NNS
homer-odyssey-850_16	8	38	that	that	IN
homer-odyssey-850_16	8	39	you	-PRON-	PRP
homer-odyssey-850_16	8	40	are	be	VBP
homer-odyssey-850_16	8	41	.	.	.
homer-odyssey-850_16	9	1	When	when	WRB
homer-odyssey-850_16	9	2	I	-PRON-	PRP
homer-odyssey-850_16	9	3	heard	hear	VBD
homer-odyssey-850_16	9	4	you	-PRON-	PRP
homer-odyssey-850_16	9	5	had	have	VBD
homer-odyssey-850_16	9	6	gone	go	VBN
homer-odyssey-850_16	9	7	to	to	IN
homer-odyssey-850_16	9	8	Pylos	pylos	NNP
homer-odyssey-850_16	9	9	I	-PRON-	PRP
homer-odyssey-850_16	9	10	made	make	VBD
homer-odyssey-850_16	9	11	sure	sure	JJ
homer-odyssey-850_16	9	12	I	-PRON-	PRP
homer-odyssey-850_16	9	13	was	be	VBD
homer-odyssey-850_16	9	14	never	never	RB
homer-odyssey-850_16	9	15	going	go	VBG
homer-odyssey-850_16	9	16	to	to	TO
homer-odyssey-850_16	9	17	see	see	VB
homer-odyssey-850_16	9	18	you	-PRON-	PRP
homer-odyssey-850_16	9	19	any	any	DT
homer-odyssey-850_16	9	20	more	more	RBR
homer-odyssey-850_16	9	21	.	.	.
homer-odyssey-850_16	10	1	Come	come	VB
homer-odyssey-850_16	10	2	in	in	RP
homer-odyssey-850_16	10	3	,	,	,
homer-odyssey-850_16	10	4	my	-PRON-	PRP$
homer-odyssey-850_16	10	5	dear	dear	JJ
homer-odyssey-850_16	10	6	child	child	NN
homer-odyssey-850_16	10	7	,	,	,
homer-odyssey-850_16	10	8	and	and	CC
homer-odyssey-850_16	10	9	sit	sit	VB
homer-odyssey-850_16	10	10	down	down	RP
homer-odyssey-850_16	10	11	,	,	,
homer-odyssey-850_16	10	12	that	that	IN
homer-odyssey-850_16	10	13	I	-PRON-	PRP
homer-odyssey-850_16	10	14	may	may	MD
homer-odyssey-850_16	10	15	have	have	VB
homer-odyssey-850_16	10	16	a	a	DT
homer-odyssey-850_16	10	17	good	good	JJ
homer-odyssey-850_16	10	18	look	look	NN
homer-odyssey-850_16	10	19	at	at	IN
homer-odyssey-850_16	10	20	you	-PRON-	PRP
homer-odyssey-850_16	10	21	now	now	RB
homer-odyssey-850_16	10	22	you	-PRON-	PRP
homer-odyssey-850_16	10	23	are	be	VBP
homer-odyssey-850_16	10	24	home	home	RB
homer-odyssey-850_16	10	25	again	again	RB
homer-odyssey-850_16	10	26	;	;	:
homer-odyssey-850_16	10	27	it	-PRON-	PRP
homer-odyssey-850_16	10	28	is	be	VBZ
homer-odyssey-850_16	10	29	not	not	RB
homer-odyssey-850_16	10	30	very	very	RB
homer-odyssey-850_16	10	31	often	often	RB
homer-odyssey-850_16	10	32	you	-PRON-	PRP
homer-odyssey-850_16	10	33	come	come	VBP
homer-odyssey-850_16	10	34	into	into	IN
homer-odyssey-850_16	10	35	the	the	DT
homer-odyssey-850_16	10	36	country	country	NN
homer-odyssey-850_16	10	37	to	to	TO
homer-odyssey-850_16	10	38	see	see	VB
homer-odyssey-850_16	10	39	us	-PRON-	PRP
homer-odyssey-850_16	10	40	herdsmen	herdsman	NNS
homer-odyssey-850_16	10	41	;	;	:
homer-odyssey-850_16	10	42	you	-PRON-	PRP
homer-odyssey-850_16	10	43	stick	stick	VBP
homer-odyssey-850_16	10	44	pretty	pretty	RB
homer-odyssey-850_16	10	45	close	close	RB
homer-odyssey-850_16	10	46	to	to	IN
homer-odyssey-850_16	10	47	the	the	DT
homer-odyssey-850_16	10	48	town	town	NN
homer-odyssey-850_16	10	49	generally	generally	RB
homer-odyssey-850_16	10	50	.	.	.
homer-odyssey-850_16	11	1	I	-PRON-	PRP
homer-odyssey-850_16	11	2	suppose	suppose	VBP
homer-odyssey-850_16	11	3	you	-PRON-	PRP
homer-odyssey-850_16	11	4	think	think	VBP
homer-odyssey-850_16	11	5	it	-PRON-	PRP
homer-odyssey-850_16	11	6	better	better	RBR
homer-odyssey-850_16	11	7	to	to	TO
homer-odyssey-850_16	11	8	keep	keep	VB
homer-odyssey-850_16	11	9	an	an	DT
homer-odyssey-850_16	11	10	eye	eye	NN
homer-odyssey-850_16	11	11	on	on	IN
homer-odyssey-850_16	11	12	what	what	WP
homer-odyssey-850_16	11	13	the	the	DT
homer-odyssey-850_16	11	14	suitors	suitor	NNS
homer-odyssey-850_16	11	15	are	be	VBP
homer-odyssey-850_16	11	16	doing	do	VBG
homer-odyssey-850_16	11	17	.	.	.
homer-odyssey-850_16	11	18	"	"	''
homer-odyssey-850_16	12	1	"	"	``
homer-odyssey-850_16	12	2	So	so	RB
homer-odyssey-850_16	12	3	be	be	VB
homer-odyssey-850_16	12	4	it	-PRON-	PRP
homer-odyssey-850_16	12	5	,	,	,
homer-odyssey-850_16	12	6	old	old	JJ
homer-odyssey-850_16	12	7	friend	friend	NN
homer-odyssey-850_16	12	8	,	,	,
homer-odyssey-850_16	12	9	"	"	''
homer-odyssey-850_16	12	10	answered	answer	VBD
homer-odyssey-850_16	12	11	Telemachus	telemachus	NN
homer-odyssey-850_16	12	12	,	,	,
homer-odyssey-850_16	12	13	"	"	''
homer-odyssey-850_16	12	14	but	but	CC
homer-odyssey-850_16	12	15	I	-PRON-	PRP
homer-odyssey-850_16	12	16	am	be	VBP
homer-odyssey-850_16	12	17	come	come	VBN
homer-odyssey-850_16	12	18	now	now	RB
homer-odyssey-850_16	12	19	because	because	IN
homer-odyssey-850_16	12	20	I	-PRON-	PRP
homer-odyssey-850_16	12	21	want	want	VBP
homer-odyssey-850_16	12	22	to	to	TO
homer-odyssey-850_16	12	23	see	see	VB
homer-odyssey-850_16	12	24	you	-PRON-	PRP
homer-odyssey-850_16	12	25	,	,	,
homer-odyssey-850_16	12	26	and	and	CC
homer-odyssey-850_16	12	27	to	to	TO
homer-odyssey-850_16	12	28	learn	learn	VB
homer-odyssey-850_16	12	29	whether	whether	IN
homer-odyssey-850_16	12	30	my	-PRON-	PRP$
homer-odyssey-850_16	12	31	mother	mother	NN
homer-odyssey-850_16	12	32	is	be	VBZ
homer-odyssey-850_16	12	33	still	still	RB
homer-odyssey-850_16	12	34	at	at	IN
homer-odyssey-850_16	12	35	her	-PRON-	PRP$
homer-odyssey-850_16	12	36	old	old	JJ
homer-odyssey-850_16	12	37	home	home	NN
homer-odyssey-850_16	12	38	or	or	CC
homer-odyssey-850_16	12	39	whether	whether	IN
homer-odyssey-850_16	12	40	some	some	DT
homer-odyssey-850_16	12	41	one	one	NN
homer-odyssey-850_16	12	42	else	else	RB
homer-odyssey-850_16	12	43	has	have	VBZ
homer-odyssey-850_16	12	44	married	marry	VBN
homer-odyssey-850_16	12	45	her	-PRON-	PRP
homer-odyssey-850_16	12	46	,	,	,
homer-odyssey-850_16	12	47	so	so	IN
homer-odyssey-850_16	12	48	that	that	IN
homer-odyssey-850_16	12	49	the	the	DT
homer-odyssey-850_16	12	50	bed	bed	NN
homer-odyssey-850_16	12	51	of	of	IN
homer-odyssey-850_16	12	52	Ulysses	ulysses	NNPS
homer-odyssey-850_16	12	53	is	be	VBZ
homer-odyssey-850_16	12	54	without	without	IN
homer-odyssey-850_16	12	55	bedding	bed	VBG
homer-odyssey-850_16	12	56	and	and	CC
homer-odyssey-850_16	12	57	covered	cover	VBN
homer-odyssey-850_16	12	58	with	with	IN
homer-odyssey-850_16	12	59	cobwebs	cobwebs	NN
homer-odyssey-850_16	12	60	.	.	.
homer-odyssey-850_16	12	61	"	"	''
homer-odyssey-850_16	13	1	"	"	``
homer-odyssey-850_16	13	2	She	-PRON-	PRP
homer-odyssey-850_16	13	3	is	be	VBZ
homer-odyssey-850_16	13	4	still	still	RB
homer-odyssey-850_16	13	5	at	at	IN
homer-odyssey-850_16	13	6	the	the	DT
homer-odyssey-850_16	13	7	house	house	NN
homer-odyssey-850_16	13	8	,	,	,
homer-odyssey-850_16	13	9	"	"	''
homer-odyssey-850_16	13	10	replied	reply	VBD
homer-odyssey-850_16	13	11	Eumaeus	eumaeus	NNP
homer-odyssey-850_16	13	12	,	,	,
homer-odyssey-850_16	13	13	"	"	``
homer-odyssey-850_16	13	14	grieving	grieve	VBG
homer-odyssey-850_16	13	15	and	and	CC
homer-odyssey-850_16	13	16	breaking	break	VBG
homer-odyssey-850_16	13	17	her	-PRON-	PRP$
homer-odyssey-850_16	13	18	heart	heart	NN
homer-odyssey-850_16	13	19	,	,	,
homer-odyssey-850_16	13	20	and	and	CC
homer-odyssey-850_16	13	21	doing	do	VBG
homer-odyssey-850_16	13	22	nothing	nothing	NN
homer-odyssey-850_16	13	23	but	but	IN
homer-odyssey-850_16	13	24	weep	weep	NN
homer-odyssey-850_16	13	25	,	,	,
homer-odyssey-850_16	13	26	both	both	DT
homer-odyssey-850_16	13	27	night	night	NN
homer-odyssey-850_16	13	28	and	and	CC
homer-odyssey-850_16	13	29	day	day	NN
homer-odyssey-850_16	13	30	continually	continually	RB
homer-odyssey-850_16	13	31	.	.	.
homer-odyssey-850_16	13	32	"	"	''
homer-odyssey-850_16	14	1	As	as	IN
homer-odyssey-850_16	14	2	he	-PRON-	PRP
homer-odyssey-850_16	14	3	spoke	speak	VBD
homer-odyssey-850_16	14	4	he	-PRON-	PRP
homer-odyssey-850_16	14	5	took	take	VBD
homer-odyssey-850_16	14	6	Telemachus	telemachus	NNP
homer-odyssey-850_16	14	7	'	'	''
homer-odyssey-850_16	14	8	spear	spear	NN
homer-odyssey-850_16	14	9	,	,	,
homer-odyssey-850_16	14	10	whereon	whereon	NN
homer-odyssey-850_16	14	11	he	-PRON-	PRP
homer-odyssey-850_16	14	12	crossed	cross	VBD
homer-odyssey-850_16	14	13	the	the	DT
homer-odyssey-850_16	14	14	stone	stone	NN
homer-odyssey-850_16	14	15	threshold	threshold	NN
homer-odyssey-850_16	14	16	and	and	CC
homer-odyssey-850_16	14	17	came	come	VBD
homer-odyssey-850_16	14	18	inside	inside	RB
homer-odyssey-850_16	14	19	.	.	.
homer-odyssey-850_16	15	1	Ulysses	ulyss	NNS
homer-odyssey-850_16	15	2	rose	rise	VBD
homer-odyssey-850_16	15	3	from	from	IN
homer-odyssey-850_16	15	4	his	-PRON-	PRP$
homer-odyssey-850_16	15	5	seat	seat	NN
homer-odyssey-850_16	15	6	to	to	TO
homer-odyssey-850_16	15	7	give	give	VB
homer-odyssey-850_16	15	8	him	-PRON-	PRP
homer-odyssey-850_16	15	9	place	place	NN
homer-odyssey-850_16	15	10	as	as	IN
homer-odyssey-850_16	15	11	he	-PRON-	PRP
homer-odyssey-850_16	15	12	entered	enter	VBD
homer-odyssey-850_16	15	13	,	,	,
homer-odyssey-850_16	15	14	but	but	CC
homer-odyssey-850_16	15	15	Telemachus	telemachus	NNP
homer-odyssey-850_16	15	16	checked	check	VBD
homer-odyssey-850_16	15	17	him	-PRON-	PRP
homer-odyssey-850_16	15	18	;	;	:
homer-odyssey-850_16	15	19	"	"	``
homer-odyssey-850_16	15	20	Sit	sit	VB
homer-odyssey-850_16	15	21	down	down	RP
homer-odyssey-850_16	15	22	,	,	,
homer-odyssey-850_16	15	23	stranger	strange	JJR
homer-odyssey-850_16	15	24	,	,	,
homer-odyssey-850_16	15	25	"	"	''
homer-odyssey-850_16	15	26	said	say	VBD
homer-odyssey-850_16	15	27	he	-PRON-	PRP
homer-odyssey-850_16	15	28	,	,	,
homer-odyssey-850_16	15	29	"	"	``
homer-odyssey-850_16	15	30	I	-PRON-	PRP
homer-odyssey-850_16	15	31	can	can	MD
homer-odyssey-850_16	15	32	easily	easily	RB
homer-odyssey-850_16	15	33	find	find	VB
homer-odyssey-850_16	15	34	another	another	DT
homer-odyssey-850_16	15	35	seat	seat	NN
homer-odyssey-850_16	15	36	,	,	,
homer-odyssey-850_16	15	37	and	and	CC
homer-odyssey-850_16	15	38	there	there	EX
homer-odyssey-850_16	15	39	is	be	VBZ
homer-odyssey-850_16	15	40	one	one	CD
homer-odyssey-850_16	15	41	here	here	RB
homer-odyssey-850_16	15	42	who	who	WP
homer-odyssey-850_16	15	43	will	will	MD
homer-odyssey-850_16	15	44	lay	lay	VB
homer-odyssey-850_16	15	45	it	-PRON-	PRP
homer-odyssey-850_16	15	46	for	for	IN
homer-odyssey-850_16	15	47	me	-PRON-	PRP
homer-odyssey-850_16	15	48	.	.	.
homer-odyssey-850_16	15	49	"	"	''
homer-odyssey-850_16	16	1	Ulysses	ulyss	NNS
homer-odyssey-850_16	16	2	went	go	VBD
homer-odyssey-850_16	16	3	back	back	RB
homer-odyssey-850_16	16	4	to	to	IN
homer-odyssey-850_16	16	5	his	-PRON-	PRP$
homer-odyssey-850_16	16	6	own	own	JJ
homer-odyssey-850_16	16	7	place	place	NN
homer-odyssey-850_16	16	8	,	,	,
homer-odyssey-850_16	16	9	and	and	CC
homer-odyssey-850_16	16	10	Eumaeus	eumaeus	NNP
homer-odyssey-850_16	16	11	strewed	strew	VBD
homer-odyssey-850_16	16	12	some	some	DT
homer-odyssey-850_16	16	13	green	green	JJ
homer-odyssey-850_16	16	14	brushwood	brushwood	NN
homer-odyssey-850_16	16	15	on	on	IN
homer-odyssey-850_16	16	16	the	the	DT
homer-odyssey-850_16	16	17	floor	floor	NN
homer-odyssey-850_16	16	18	and	and	CC
homer-odyssey-850_16	16	19	threw	throw	VBD
homer-odyssey-850_16	16	20	a	a	DT
homer-odyssey-850_16	16	21	sheepskin	sheepskin	NN
homer-odyssey-850_16	16	22	on	on	IN
homer-odyssey-850_16	16	23	top	top	NN
homer-odyssey-850_16	16	24	of	of	IN
homer-odyssey-850_16	16	25	it	-PRON-	PRP
homer-odyssey-850_16	16	26	for	for	IN
homer-odyssey-850_16	16	27	Telemachus	telemachus	NNP
homer-odyssey-850_16	16	28	to	to	TO
homer-odyssey-850_16	16	29	sit	sit	VB
homer-odyssey-850_16	16	30	upon	upon	IN
homer-odyssey-850_16	16	31	.	.	.
homer-odyssey-850_16	17	1	Then	then	RB
homer-odyssey-850_16	17	2	the	the	DT
homer-odyssey-850_16	17	3	swineherd	swineherd	NN
homer-odyssey-850_16	17	4	brought	bring	VBD
homer-odyssey-850_16	17	5	them	-PRON-	PRP
homer-odyssey-850_16	17	6	platters	platter	NNS
homer-odyssey-850_16	17	7	of	of	IN
homer-odyssey-850_16	17	8	cold	cold	JJ
homer-odyssey-850_16	17	9	meat	meat	NN
homer-odyssey-850_16	17	10	,	,	,
homer-odyssey-850_16	17	11	the	the	DT
homer-odyssey-850_16	17	12	remains	remain	NNS
homer-odyssey-850_16	17	13	from	from	IN
homer-odyssey-850_16	17	14	what	what	WP
homer-odyssey-850_16	17	15	they	-PRON-	PRP
homer-odyssey-850_16	17	16	had	have	VBD
homer-odyssey-850_16	17	17	eaten	eat	VBN
homer-odyssey-850_16	17	18	the	the	DT
homer-odyssey-850_16	17	19	day	day	NN
homer-odyssey-850_16	17	20	before	before	RB
homer-odyssey-850_16	17	21	,	,	,
homer-odyssey-850_16	17	22	and	and	CC
homer-odyssey-850_16	17	23	he	-PRON-	PRP
homer-odyssey-850_16	17	24	filled	fill	VBD
homer-odyssey-850_16	17	25	the	the	DT
homer-odyssey-850_16	17	26	bread	bread	NN
homer-odyssey-850_16	17	27	baskets	basket	NNS
homer-odyssey-850_16	17	28	with	with	IN
homer-odyssey-850_16	17	29	bread	bread	NN
homer-odyssey-850_16	17	30	as	as	RB
homer-odyssey-850_16	17	31	fast	fast	RB
homer-odyssey-850_16	17	32	as	as	IN
homer-odyssey-850_16	17	33	he	-PRON-	PRP
homer-odyssey-850_16	17	34	could	could	MD
homer-odyssey-850_16	17	35	.	.	.
homer-odyssey-850_16	18	1	He	-PRON-	PRP
homer-odyssey-850_16	18	2	mixed	mix	VBD
homer-odyssey-850_16	18	3	wine	wine	NN
homer-odyssey-850_16	18	4	also	also	RB
homer-odyssey-850_16	18	5	in	in	IN
homer-odyssey-850_16	18	6	bowls	bowl	NNS
homer-odyssey-850_16	18	7	of	of	IN
homer-odyssey-850_16	18	8	ivy-	ivy-	JJ
homer-odyssey-850_16	18	9	wood	wood	NN
homer-odyssey-850_16	18	10	,	,	,
homer-odyssey-850_16	18	11	and	and	CC
homer-odyssey-850_16	18	12	took	take	VBD
homer-odyssey-850_16	18	13	his	-PRON-	PRP$
homer-odyssey-850_16	18	14	seat	seat	NN
homer-odyssey-850_16	18	15	facing	face	VBG
homer-odyssey-850_16	18	16	Ulysses	ulyss	NNS
homer-odyssey-850_16	18	17	.	.	.
homer-odyssey-850_16	19	1	Then	then	RB
homer-odyssey-850_16	19	2	they	-PRON-	PRP
homer-odyssey-850_16	19	3	laid	lay	VBD
homer-odyssey-850_16	19	4	their	-PRON-	PRP$
homer-odyssey-850_16	19	5	hands	hand	NNS
homer-odyssey-850_16	19	6	on	on	IN
homer-odyssey-850_16	19	7	the	the	DT
homer-odyssey-850_16	19	8	good	good	JJ
homer-odyssey-850_16	19	9	things	thing	NNS
homer-odyssey-850_16	19	10	that	that	WDT
homer-odyssey-850_16	19	11	were	be	VBD
homer-odyssey-850_16	19	12	before	before	IN
homer-odyssey-850_16	19	13	them	-PRON-	PRP
homer-odyssey-850_16	19	14	,	,	,
homer-odyssey-850_16	19	15	and	and	CC
homer-odyssey-850_16	19	16	as	as	RB
homer-odyssey-850_16	19	17	soon	soon	RB
homer-odyssey-850_16	19	18	as	as	IN
homer-odyssey-850_16	19	19	they	-PRON-	PRP
homer-odyssey-850_16	19	20	had	have	VBD
homer-odyssey-850_16	19	21	had	have	VBN
homer-odyssey-850_16	19	22	enough	enough	JJ
homer-odyssey-850_16	19	23	to	to	TO
homer-odyssey-850_16	19	24	eat	eat	VB
homer-odyssey-850_16	19	25	and	and	CC
homer-odyssey-850_16	19	26	drink	drink	VB
homer-odyssey-850_16	19	27	Telemachus	telemachus	NNP
homer-odyssey-850_16	19	28	said	say	VBD
homer-odyssey-850_16	19	29	to	to	IN
homer-odyssey-850_16	19	30	Eumaeus	eumaeus	NNP
homer-odyssey-850_16	19	31	,	,	,
homer-odyssey-850_16	19	32	"	"	``
homer-odyssey-850_16	19	33	Old	old	JJ
homer-odyssey-850_16	19	34	friend	friend	NN
homer-odyssey-850_16	19	35	,	,	,
homer-odyssey-850_16	19	36	where	where	WRB
homer-odyssey-850_16	19	37	does	do	VBZ
homer-odyssey-850_16	19	38	this	this	DT
homer-odyssey-850_16	19	39	stranger	stranger	NN
homer-odyssey-850_16	19	40	come	come	VB
homer-odyssey-850_16	19	41	from	from	IN
homer-odyssey-850_16	19	42	?	?	.
homer-odyssey-850_16	20	1	How	how	WRB
homer-odyssey-850_16	20	2	did	do	VBD
homer-odyssey-850_16	20	3	his	-PRON-	PRP$
homer-odyssey-850_16	20	4	crew	crew	NN
homer-odyssey-850_16	20	5	bring	bring	VB
homer-odyssey-850_16	20	6	him	-PRON-	PRP
homer-odyssey-850_16	20	7	to	to	IN
homer-odyssey-850_16	20	8	Ithaca	ithaca	NNP
homer-odyssey-850_16	20	9	,	,	,
homer-odyssey-850_16	20	10	and	and	CC
homer-odyssey-850_16	20	11	who	who	WP
homer-odyssey-850_16	20	12	were	be	VBD
homer-odyssey-850_16	20	13	they?--	they?--	NNP
homer-odyssey-850_16	20	14	for	for	IN
homer-odyssey-850_16	20	15	assuredly	assuredly	RB
homer-odyssey-850_16	20	16	he	-PRON-	PRP
homer-odyssey-850_16	20	17	did	do	VBD
homer-odyssey-850_16	20	18	not	not	RB
homer-odyssey-850_16	20	19	come	come	VB
homer-odyssey-850_16	20	20	here	here	RB
homer-odyssey-850_16	20	21	by	by	IN
homer-odyssey-850_16	20	22	land	land	NN
homer-odyssey-850_16	20	23	.	.	.
homer-odyssey-850_16	20	24	"	"	''
homer-odyssey-850_16	21	1	To	to	IN
homer-odyssey-850_16	21	2	this	this	DT
homer-odyssey-850_16	21	3	you	-PRON-	PRP
homer-odyssey-850_16	21	4	answered	answer	VBD
homer-odyssey-850_16	21	5	,	,	,
homer-odyssey-850_16	21	6	O	o	UH
homer-odyssey-850_16	21	7	swineherd	swineherd	NN
homer-odyssey-850_16	21	8	Eumaeus	eumaeus	NNP
homer-odyssey-850_16	21	9	,	,	,
homer-odyssey-850_16	21	10	"	"	``
homer-odyssey-850_16	21	11	My	-PRON-	PRP$
homer-odyssey-850_16	21	12	son	son	NN
homer-odyssey-850_16	21	13	,	,	,
homer-odyssey-850_16	21	14	I	-PRON-	PRP
homer-odyssey-850_16	21	15	will	will	MD
homer-odyssey-850_16	21	16	tell	tell	VB
homer-odyssey-850_16	21	17	you	-PRON-	PRP
homer-odyssey-850_16	21	18	the	the	DT
homer-odyssey-850_16	21	19	real	real	JJ
homer-odyssey-850_16	21	20	truth	truth	NN
homer-odyssey-850_16	21	21	.	.	.
homer-odyssey-850_16	22	1	He	-PRON-	PRP
homer-odyssey-850_16	22	2	says	say	VBZ
homer-odyssey-850_16	22	3	he	-PRON-	PRP
homer-odyssey-850_16	22	4	is	be	VBZ
homer-odyssey-850_16	22	5	a	a	DT
homer-odyssey-850_16	22	6	Cretan	cretan	NNP
homer-odyssey-850_16	22	7	,	,	,
homer-odyssey-850_16	22	8	and	and	CC
homer-odyssey-850_16	22	9	that	that	IN
homer-odyssey-850_16	22	10	he	-PRON-	PRP
homer-odyssey-850_16	22	11	has	have	VBZ
homer-odyssey-850_16	22	12	been	be	VBN
homer-odyssey-850_16	22	13	a	a	DT
homer-odyssey-850_16	22	14	great	great	JJ
homer-odyssey-850_16	22	15	traveller	traveller	NN
homer-odyssey-850_16	22	16	.	.	.
homer-odyssey-850_16	23	1	At	at	IN
homer-odyssey-850_16	23	2	this	this	DT
homer-odyssey-850_16	23	3	moment	moment	NN
homer-odyssey-850_16	23	4	he	-PRON-	PRP
homer-odyssey-850_16	23	5	is	be	VBZ
homer-odyssey-850_16	23	6	running	run	VBG
homer-odyssey-850_16	23	7	away	away	RB
homer-odyssey-850_16	23	8	from	from	IN
homer-odyssey-850_16	23	9	a	a	DT
homer-odyssey-850_16	23	10	Thesprotian	thesprotian	JJ
homer-odyssey-850_16	23	11	ship	ship	NN
homer-odyssey-850_16	23	12	,	,	,
homer-odyssey-850_16	23	13	and	and	CC
homer-odyssey-850_16	23	14	has	have	VBZ
homer-odyssey-850_16	23	15	taken	take	VBN
homer-odyssey-850_16	23	16	refuge	refuge	NN
homer-odyssey-850_16	23	17	at	at	IN
homer-odyssey-850_16	23	18	my	-PRON-	PRP$
homer-odyssey-850_16	23	19	station	station	NN
homer-odyssey-850_16	23	20	,	,	,
homer-odyssey-850_16	23	21	so	so	CC
homer-odyssey-850_16	23	22	I	-PRON-	PRP
homer-odyssey-850_16	23	23	will	will	MD
homer-odyssey-850_16	23	24	put	put	VB
homer-odyssey-850_16	23	25	him	-PRON-	PRP
homer-odyssey-850_16	23	26	into	into	IN
homer-odyssey-850_16	23	27	your	-PRON-	PRP$
homer-odyssey-850_16	23	28	hands	hand	NNS
homer-odyssey-850_16	23	29	.	.	.
homer-odyssey-850_16	24	1	Do	do	VB
homer-odyssey-850_16	24	2	whatever	whatev	WDT
homer-odyssey-850_16	24	3	you	-PRON-	PRP
homer-odyssey-850_16	24	4	like	like	VBP
homer-odyssey-850_16	24	5	with	with	IN
homer-odyssey-850_16	24	6	him	-PRON-	PRP
homer-odyssey-850_16	24	7	,	,	,
homer-odyssey-850_16	24	8	only	only	RB
homer-odyssey-850_16	24	9	remember	remember	VB
homer-odyssey-850_16	24	10	that	that	IN
homer-odyssey-850_16	24	11	he	-PRON-	PRP
homer-odyssey-850_16	24	12	is	be	VBZ
homer-odyssey-850_16	24	13	your	-PRON-	PRP$
homer-odyssey-850_16	24	14	suppliant	suppliant	NN
homer-odyssey-850_16	24	15	.	.	.
homer-odyssey-850_16	24	16	"	"	''
homer-odyssey-850_16	25	1	"	"	``
homer-odyssey-850_16	25	2	I	-PRON-	PRP
homer-odyssey-850_16	25	3	am	be	VBP
homer-odyssey-850_16	25	4	very	very	RB
homer-odyssey-850_16	25	5	much	much	RB
homer-odyssey-850_16	25	6	distressed	distressed	JJ
homer-odyssey-850_16	25	7	,	,	,
homer-odyssey-850_16	25	8	"	"	''
homer-odyssey-850_16	25	9	said	say	VBD
homer-odyssey-850_16	25	10	Telemachus	telemachus	NNP
homer-odyssey-850_16	25	11	,	,	,
homer-odyssey-850_16	25	12	"	"	''
homer-odyssey-850_16	25	13	by	by	IN
homer-odyssey-850_16	25	14	what	what	WP
homer-odyssey-850_16	25	15	you	-PRON-	PRP
homer-odyssey-850_16	25	16	have	have	VBP
homer-odyssey-850_16	25	17	just	just	RB
homer-odyssey-850_16	25	18	told	tell	VBN
homer-odyssey-850_16	25	19	me	-PRON-	PRP
homer-odyssey-850_16	25	20	.	.	.
homer-odyssey-850_16	26	1	How	how	WRB
homer-odyssey-850_16	26	2	can	can	MD
homer-odyssey-850_16	26	3	I	-PRON-	PRP
homer-odyssey-850_16	26	4	take	take	VB
homer-odyssey-850_16	26	5	this	this	DT
homer-odyssey-850_16	26	6	stranger	stranger	NN
homer-odyssey-850_16	26	7	into	into	IN
homer-odyssey-850_16	26	8	my	-PRON-	PRP$
homer-odyssey-850_16	26	9	house	house	NN
homer-odyssey-850_16	26	10	?	?	.
homer-odyssey-850_16	27	1	I	-PRON-	PRP
homer-odyssey-850_16	27	2	am	be	VBP
homer-odyssey-850_16	27	3	as	as	RB
homer-odyssey-850_16	27	4	yet	yet	RB
homer-odyssey-850_16	27	5	young	young	JJ
homer-odyssey-850_16	27	6	,	,	,
homer-odyssey-850_16	27	7	and	and	CC
homer-odyssey-850_16	27	8	am	be	VBP
homer-odyssey-850_16	27	9	not	not	RB
homer-odyssey-850_16	27	10	strong	strong	JJ
homer-odyssey-850_16	27	11	enough	enough	RB
homer-odyssey-850_16	27	12	to	to	TO
homer-odyssey-850_16	27	13	hold	hold	VB
homer-odyssey-850_16	27	14	my	-PRON-	PRP$
homer-odyssey-850_16	27	15	own	own	JJ
homer-odyssey-850_16	27	16	if	if	IN
homer-odyssey-850_16	27	17	any	any	DT
homer-odyssey-850_16	27	18	man	man	NN
homer-odyssey-850_16	27	19	attacks	attack	VBZ
homer-odyssey-850_16	27	20	me	-PRON-	PRP
homer-odyssey-850_16	27	21	.	.	.
homer-odyssey-850_16	28	1	My	-PRON-	PRP$
homer-odyssey-850_16	28	2	mother	mother	NN
homer-odyssey-850_16	28	3	can	can	MD
homer-odyssey-850_16	28	4	not	not	RB
homer-odyssey-850_16	28	5	make	make	VB
homer-odyssey-850_16	28	6	up	up	RP
homer-odyssey-850_16	28	7	her	-PRON-	PRP$
homer-odyssey-850_16	28	8	mind	mind	NN
homer-odyssey-850_16	28	9	whether	whether	IN
homer-odyssey-850_16	28	10	to	to	TO
homer-odyssey-850_16	28	11	stay	stay	VB
homer-odyssey-850_16	28	12	where	where	WRB
homer-odyssey-850_16	28	13	she	-PRON-	PRP
homer-odyssey-850_16	28	14	is	be	VBZ
homer-odyssey-850_16	28	15	and	and	CC
homer-odyssey-850_16	28	16	look	look	VB
homer-odyssey-850_16	28	17	after	after	IN
homer-odyssey-850_16	28	18	the	the	DT
homer-odyssey-850_16	28	19	house	house	NN
homer-odyssey-850_16	28	20	out	out	IN
homer-odyssey-850_16	28	21	of	of	IN
homer-odyssey-850_16	28	22	respect	respect	NN
homer-odyssey-850_16	28	23	for	for	IN
homer-odyssey-850_16	28	24	public	public	JJ
homer-odyssey-850_16	28	25	opinion	opinion	NN
homer-odyssey-850_16	28	26	and	and	CC
homer-odyssey-850_16	28	27	the	the	DT
homer-odyssey-850_16	28	28	memory	memory	NN
homer-odyssey-850_16	28	29	of	of	IN
homer-odyssey-850_16	28	30	her	-PRON-	PRP$
homer-odyssey-850_16	28	31	husband	husband	NN
homer-odyssey-850_16	28	32	,	,	,
homer-odyssey-850_16	28	33	or	or	CC
homer-odyssey-850_16	28	34	whether	whether	IN
homer-odyssey-850_16	28	35	the	the	DT
homer-odyssey-850_16	28	36	time	time	NN
homer-odyssey-850_16	28	37	is	be	VBZ
homer-odyssey-850_16	28	38	now	now	RB
homer-odyssey-850_16	28	39	come	come	VBN
homer-odyssey-850_16	28	40	for	for	IN
homer-odyssey-850_16	28	41	her	-PRON-	PRP
homer-odyssey-850_16	28	42	to	to	TO
homer-odyssey-850_16	28	43	take	take	VB
homer-odyssey-850_16	28	44	the	the	DT
homer-odyssey-850_16	28	45	best	good	JJS
homer-odyssey-850_16	28	46	man	man	NN
homer-odyssey-850_16	28	47	of	of	IN
homer-odyssey-850_16	28	48	those	those	DT
homer-odyssey-850_16	28	49	who	who	WP
homer-odyssey-850_16	28	50	are	be	VBP
homer-odyssey-850_16	28	51	wooing	woo	VBG
homer-odyssey-850_16	28	52	her	-PRON-	PRP
homer-odyssey-850_16	28	53	,	,	,
homer-odyssey-850_16	28	54	and	and	CC
homer-odyssey-850_16	28	55	the	the	DT
homer-odyssey-850_16	28	56	one	one	NN
homer-odyssey-850_16	28	57	who	who	WP
homer-odyssey-850_16	28	58	will	will	MD
homer-odyssey-850_16	28	59	make	make	VB
homer-odyssey-850_16	28	60	her	-PRON-	PRP
homer-odyssey-850_16	28	61	the	the	DT
homer-odyssey-850_16	28	62	most	most	RBS
homer-odyssey-850_16	28	63	advantageous	advantageous	JJ
homer-odyssey-850_16	28	64	offer	offer	NN
homer-odyssey-850_16	28	65	;	;	:
homer-odyssey-850_16	28	66	still	still	RB
homer-odyssey-850_16	28	67	,	,	,
homer-odyssey-850_16	28	68	as	as	IN
homer-odyssey-850_16	28	69	the	the	DT
homer-odyssey-850_16	28	70	stranger	stranger	NN
homer-odyssey-850_16	28	71	has	have	VBZ
homer-odyssey-850_16	28	72	come	come	VBN
homer-odyssey-850_16	28	73	to	to	IN
homer-odyssey-850_16	28	74	your	-PRON-	PRP$
homer-odyssey-850_16	28	75	station	station	NN
homer-odyssey-850_16	28	76	I	-PRON-	PRP
homer-odyssey-850_16	28	77	will	will	MD
homer-odyssey-850_16	28	78	find	find	VB
homer-odyssey-850_16	28	79	him	-PRON-	PRP
homer-odyssey-850_16	28	80	a	a	DT
homer-odyssey-850_16	28	81	cloak	cloak	NN
homer-odyssey-850_16	28	82	and	and	CC
homer-odyssey-850_16	28	83	shirt	shirt	NN
homer-odyssey-850_16	28	84	of	of	IN
homer-odyssey-850_16	28	85	good	good	JJ
homer-odyssey-850_16	28	86	wear	wear	NN
homer-odyssey-850_16	28	87	,	,	,
homer-odyssey-850_16	28	88	with	with	IN
homer-odyssey-850_16	28	89	a	a	DT
homer-odyssey-850_16	28	90	sword	sword	NN
homer-odyssey-850_16	28	91	and	and	CC
homer-odyssey-850_16	28	92	sandals	sandal	NNS
homer-odyssey-850_16	28	93	,	,	,
homer-odyssey-850_16	28	94	and	and	CC
homer-odyssey-850_16	28	95	will	will	MD
homer-odyssey-850_16	28	96	send	send	VB
homer-odyssey-850_16	28	97	him	-PRON-	PRP
homer-odyssey-850_16	28	98	wherever	wherever	WRB
homer-odyssey-850_16	28	99	he	-PRON-	PRP
homer-odyssey-850_16	28	100	wants	want	VBZ
homer-odyssey-850_16	28	101	to	to	TO
homer-odyssey-850_16	28	102	go	go	VB
homer-odyssey-850_16	28	103	.	.	.
homer-odyssey-850_16	29	1	Or	or	CC
homer-odyssey-850_16	29	2	if	if	IN
homer-odyssey-850_16	29	3	you	-PRON-	PRP
homer-odyssey-850_16	29	4	like	like	VBP
homer-odyssey-850_16	29	5	you	-PRON-	PRP
homer-odyssey-850_16	29	6	can	can	MD
homer-odyssey-850_16	29	7	keep	keep	VB
homer-odyssey-850_16	29	8	him	-PRON-	PRP
homer-odyssey-850_16	29	9	here	here	RB
homer-odyssey-850_16	29	10	at	at	IN
homer-odyssey-850_16	29	11	the	the	DT
homer-odyssey-850_16	29	12	station	station	NN
homer-odyssey-850_16	29	13	,	,	,
homer-odyssey-850_16	29	14	and	and	CC
homer-odyssey-850_16	29	15	I	-PRON-	PRP
homer-odyssey-850_16	29	16	will	will	MD
homer-odyssey-850_16	29	17	send	send	VB
homer-odyssey-850_16	29	18	him	-PRON-	PRP
homer-odyssey-850_16	29	19	clothes	clothe	NNS
homer-odyssey-850_16	29	20	and	and	CC
homer-odyssey-850_16	29	21	food	food	NN
homer-odyssey-850_16	29	22	that	that	WDT
homer-odyssey-850_16	29	23	he	-PRON-	PRP
homer-odyssey-850_16	29	24	may	may	MD
homer-odyssey-850_16	29	25	be	be	VB
homer-odyssey-850_16	29	26	no	no	DT
homer-odyssey-850_16	29	27	burden	burden	NN
homer-odyssey-850_16	29	28	on	on	IN
homer-odyssey-850_16	29	29	you	-PRON-	PRP
homer-odyssey-850_16	29	30	and	and	CC
homer-odyssey-850_16	29	31	on	on	IN
homer-odyssey-850_16	29	32	your	-PRON-	PRP$
homer-odyssey-850_16	29	33	men	man	NNS
homer-odyssey-850_16	29	34	;	;	:
homer-odyssey-850_16	29	35	but	but	CC
homer-odyssey-850_16	29	36	I	-PRON-	PRP
homer-odyssey-850_16	29	37	will	will	MD
homer-odyssey-850_16	29	38	not	not	RB
homer-odyssey-850_16	29	39	have	have	VB
homer-odyssey-850_16	29	40	him	-PRON-	PRP
homer-odyssey-850_16	29	41	go	go	VB
homer-odyssey-850_16	29	42	near	near	IN
homer-odyssey-850_16	29	43	the	the	DT
homer-odyssey-850_16	29	44	suitors	suitor	NNS
homer-odyssey-850_16	29	45	,	,	,
homer-odyssey-850_16	29	46	for	for	IN
homer-odyssey-850_16	29	47	they	-PRON-	PRP
homer-odyssey-850_16	29	48	are	be	VBP
homer-odyssey-850_16	29	49	very	very	RB
homer-odyssey-850_16	29	50	insolent	insolent	JJ
homer-odyssey-850_16	29	51	,	,	,
homer-odyssey-850_16	29	52	and	and	CC
homer-odyssey-850_16	29	53	are	be	VBP
homer-odyssey-850_16	29	54	sure	sure	JJ
homer-odyssey-850_16	29	55	to	to	TO
homer-odyssey-850_16	29	56	ill	ill	RB
homer-odyssey-850_16	29	57	treat	treat	VB
homer-odyssey-850_16	29	58	him	-PRON-	PRP
homer-odyssey-850_16	29	59	in	in	IN
homer-odyssey-850_16	29	60	a	a	DT
homer-odyssey-850_16	29	61	way	way	NN
homer-odyssey-850_16	29	62	that	that	WDT
homer-odyssey-850_16	29	63	would	would	MD
homer-odyssey-850_16	29	64	greatly	greatly	RB
homer-odyssey-850_16	29	65	grieve	grieve	VB
homer-odyssey-850_16	29	66	me	-PRON-	PRP
homer-odyssey-850_16	29	67	;	;	:
homer-odyssey-850_16	29	68	no	no	RB
homer-odyssey-850_16	29	69	matter	matter	RB
homer-odyssey-850_16	29	70	how	how	WRB
homer-odyssey-850_16	29	71	valiant	valiant	JJ
homer-odyssey-850_16	29	72	a	a	DT
homer-odyssey-850_16	29	73	man	man	NN
homer-odyssey-850_16	29	74	may	may	MD
homer-odyssey-850_16	29	75	be	be	VB
homer-odyssey-850_16	29	76	he	-PRON-	PRP
homer-odyssey-850_16	29	77	can	can	MD
homer-odyssey-850_16	29	78	do	do	VB
homer-odyssey-850_16	29	79	nothing	nothing	NN
homer-odyssey-850_16	29	80	against	against	IN
homer-odyssey-850_16	29	81	numbers	number	NNS
homer-odyssey-850_16	29	82	,	,	,
homer-odyssey-850_16	29	83	for	for	IN
homer-odyssey-850_16	29	84	they	-PRON-	PRP
homer-odyssey-850_16	29	85	will	will	MD
homer-odyssey-850_16	29	86	be	be	VB
homer-odyssey-850_16	29	87	too	too	RB
homer-odyssey-850_16	29	88	strong	strong	JJ
homer-odyssey-850_16	29	89	for	for	IN
homer-odyssey-850_16	29	90	him	-PRON-	PRP
homer-odyssey-850_16	29	91	.	.	.
homer-odyssey-850_16	29	92	"	"	''
homer-odyssey-850_16	30	1	Then	then	RB
homer-odyssey-850_16	30	2	Ulysses	ulyss	NNS
homer-odyssey-850_16	30	3	said	say	VBD
homer-odyssey-850_16	30	4	,	,	,
homer-odyssey-850_16	30	5	"	"	``
homer-odyssey-850_16	30	6	Sir	sir	NNP
homer-odyssey-850_16	30	7	,	,	,
homer-odyssey-850_16	30	8	it	-PRON-	PRP
homer-odyssey-850_16	30	9	is	be	VBZ
homer-odyssey-850_16	30	10	right	right	JJ
homer-odyssey-850_16	30	11	that	that	IN
homer-odyssey-850_16	30	12	I	-PRON-	PRP
homer-odyssey-850_16	30	13	should	should	MD
homer-odyssey-850_16	30	14	say	say	VB
homer-odyssey-850_16	30	15	something	something	NN
homer-odyssey-850_16	30	16	myself	-PRON-	PRP
homer-odyssey-850_16	30	17	.	.	.
homer-odyssey-850_16	31	1	I	-PRON-	PRP
homer-odyssey-850_16	31	2	am	be	VBP
homer-odyssey-850_16	31	3	much	much	RB
homer-odyssey-850_16	31	4	shocked	shocked	JJ
homer-odyssey-850_16	31	5	about	about	IN
homer-odyssey-850_16	31	6	what	what	WP
homer-odyssey-850_16	31	7	you	-PRON-	PRP
homer-odyssey-850_16	31	8	have	have	VBP
homer-odyssey-850_16	31	9	said	say	VBN
homer-odyssey-850_16	31	10	about	about	IN
homer-odyssey-850_16	31	11	the	the	DT
homer-odyssey-850_16	31	12	insolent	insolent	JJ
homer-odyssey-850_16	31	13	way	way	NN
homer-odyssey-850_16	31	14	in	in	IN
homer-odyssey-850_16	31	15	which	which	WDT
homer-odyssey-850_16	31	16	the	the	DT
homer-odyssey-850_16	31	17	suitors	suitor	NNS
homer-odyssey-850_16	31	18	are	be	VBP
homer-odyssey-850_16	31	19	behaving	behave	VBG
homer-odyssey-850_16	31	20	in	in	IN
homer-odyssey-850_16	31	21	despite	despite	IN
homer-odyssey-850_16	31	22	of	of	IN
homer-odyssey-850_16	31	23	such	such	PDT
homer-odyssey-850_16	31	24	a	a	DT
homer-odyssey-850_16	31	25	man	man	NN
homer-odyssey-850_16	31	26	as	as	IN
homer-odyssey-850_16	31	27	you	-PRON-	PRP
homer-odyssey-850_16	31	28	are	be	VBP
homer-odyssey-850_16	31	29	.	.	.
homer-odyssey-850_16	32	1	Tell	tell	VB
homer-odyssey-850_16	32	2	me	-PRON-	PRP
homer-odyssey-850_16	32	3	,	,	,
homer-odyssey-850_16	32	4	do	do	VBP
homer-odyssey-850_16	32	5	you	-PRON-	PRP
homer-odyssey-850_16	32	6	submit	submit	VB
homer-odyssey-850_16	32	7	to	to	IN
homer-odyssey-850_16	32	8	such	such	JJ
homer-odyssey-850_16	32	9	treatment	treatment	NN
homer-odyssey-850_16	32	10	tamely	tamely	RB
homer-odyssey-850_16	32	11	,	,	,
homer-odyssey-850_16	32	12	or	or	CC
homer-odyssey-850_16	32	13	has	have	VBZ
homer-odyssey-850_16	32	14	some	some	DT
homer-odyssey-850_16	32	15	god	god	NN
homer-odyssey-850_16	32	16	set	set	VB
homer-odyssey-850_16	32	17	your	-PRON-	PRP$
homer-odyssey-850_16	32	18	people	people	NNS
homer-odyssey-850_16	32	19	against	against	IN
homer-odyssey-850_16	32	20	you	-PRON-	PRP
homer-odyssey-850_16	32	21	?	?	.
homer-odyssey-850_16	33	1	May	may	MD
homer-odyssey-850_16	33	2	you	-PRON-	PRP
homer-odyssey-850_16	33	3	not	not	RB
homer-odyssey-850_16	33	4	complain	complain	VB
homer-odyssey-850_16	33	5	of	of	IN
homer-odyssey-850_16	33	6	your	-PRON-	PRP$
homer-odyssey-850_16	33	7	brothers--	brothers--	NN
homer-odyssey-850_16	33	8	for	for	IN
homer-odyssey-850_16	33	9	it	-PRON-	PRP
homer-odyssey-850_16	33	10	is	be	VBZ
homer-odyssey-850_16	33	11	to	to	IN
homer-odyssey-850_16	33	12	these	these	DT
homer-odyssey-850_16	33	13	that	that	IN
homer-odyssey-850_16	33	14	a	a	DT
homer-odyssey-850_16	33	15	man	man	NN
homer-odyssey-850_16	33	16	may	may	MD
homer-odyssey-850_16	33	17	look	look	VB
homer-odyssey-850_16	33	18	for	for	IN
homer-odyssey-850_16	33	19	support	support	NN
homer-odyssey-850_16	33	20	,	,	,
homer-odyssey-850_16	33	21	however	however	RB
homer-odyssey-850_16	33	22	great	great	JJ
homer-odyssey-850_16	33	23	his	-PRON-	PRP$
homer-odyssey-850_16	33	24	quarrel	quarrel	NN
homer-odyssey-850_16	33	25	may	may	MD
homer-odyssey-850_16	33	26	be	be	VB
homer-odyssey-850_16	33	27	?	?	.
homer-odyssey-850_16	34	1	I	-PRON-	PRP
homer-odyssey-850_16	34	2	wish	wish	VBP
homer-odyssey-850_16	34	3	I	-PRON-	PRP
homer-odyssey-850_16	34	4	were	be	VBD
homer-odyssey-850_16	34	5	as	as	RB
homer-odyssey-850_16	34	6	young	young	JJ
homer-odyssey-850_16	34	7	as	as	IN
homer-odyssey-850_16	34	8	you	-PRON-	PRP
homer-odyssey-850_16	34	9	are	be	VBP
homer-odyssey-850_16	34	10	and	and	CC
homer-odyssey-850_16	34	11	in	in	IN
homer-odyssey-850_16	34	12	my	-PRON-	PRP$
homer-odyssey-850_16	34	13	present	present	JJ
homer-odyssey-850_16	34	14	mind	mind	NN
homer-odyssey-850_16	34	15	;	;	:
homer-odyssey-850_16	34	16	if	if	IN
homer-odyssey-850_16	34	17	I	-PRON-	PRP
homer-odyssey-850_16	34	18	were	be	VBD
homer-odyssey-850_16	34	19	son	son	NN
homer-odyssey-850_16	34	20	to	to	IN
homer-odyssey-850_16	34	21	Ulysses	ulysses	NNPS
homer-odyssey-850_16	34	22	,	,	,
homer-odyssey-850_16	34	23	or	or	CC
homer-odyssey-850_16	34	24	,	,	,
homer-odyssey-850_16	34	25	indeed	indeed	RB
homer-odyssey-850_16	34	26	,	,	,
homer-odyssey-850_16	34	27	Ulysses	ulyss	VBZ
homer-odyssey-850_16	34	28	himself	-PRON-	PRP
homer-odyssey-850_16	34	29	,	,	,
homer-odyssey-850_16	34	30	I	-PRON-	PRP
homer-odyssey-850_16	34	31	would	would	MD
homer-odyssey-850_16	34	32	rather	rather	RB
homer-odyssey-850_16	34	33	some	some	DT
homer-odyssey-850_16	34	34	one	one	NN
homer-odyssey-850_16	34	35	came	come	VBD
homer-odyssey-850_16	34	36	and	and	CC
homer-odyssey-850_16	34	37	cut	cut	VB
homer-odyssey-850_16	34	38	my	-PRON-	PRP$
homer-odyssey-850_16	34	39	head	head	NN
homer-odyssey-850_16	34	40	off	off	RP
homer-odyssey-850_16	34	41	,	,	,
homer-odyssey-850_16	34	42	but	but	CC
homer-odyssey-850_16	34	43	I	-PRON-	PRP
homer-odyssey-850_16	34	44	would	would	MD
homer-odyssey-850_16	34	45	go	go	VB
homer-odyssey-850_16	34	46	to	to	IN
homer-odyssey-850_16	34	47	the	the	DT
homer-odyssey-850_16	34	48	house	house	NN
homer-odyssey-850_16	34	49	and	and	CC
homer-odyssey-850_16	34	50	be	be	VB
homer-odyssey-850_16	34	51	the	the	DT
homer-odyssey-850_16	34	52	bane	bane	NN
homer-odyssey-850_16	34	53	of	of	IN
homer-odyssey-850_16	34	54	every	every	DT
homer-odyssey-850_16	34	55	one	one	CD
homer-odyssey-850_16	34	56	of	of	IN
homer-odyssey-850_16	34	57	these	these	DT
homer-odyssey-850_16	34	58	men	man	NNS
homer-odyssey-850_16	34	59	.	.	.
homer-odyssey-850_16	35	1	{	{	-LRB-
homer-odyssey-850_16	35	2	139	139	CD
homer-odyssey-850_16	35	3	}	}	-RRB-
homer-odyssey-850_16	35	4	If	if	IN
homer-odyssey-850_16	35	5	they	-PRON-	PRP
homer-odyssey-850_16	35	6	were	be	VBD
homer-odyssey-850_16	35	7	too	too	RB
homer-odyssey-850_16	35	8	many	many	JJ
homer-odyssey-850_16	35	9	for	for	IN
homer-odyssey-850_16	35	10	me--	me--	FW
homer-odyssey-850_16	35	11	I	-PRON-	PRP
homer-odyssey-850_16	35	12	being	be	VBG
homer-odyssey-850_16	35	13	single-	single-	JJ
homer-odyssey-850_16	35	14	handed--	handed--	:
homer-odyssey-850_16	35	15	I	-PRON-	PRP
homer-odyssey-850_16	35	16	would	would	MD
homer-odyssey-850_16	35	17	rather	rather	RB
homer-odyssey-850_16	35	18	die	die	VB
homer-odyssey-850_16	35	19	fighting	fight	VBG
homer-odyssey-850_16	35	20	in	in	IN
homer-odyssey-850_16	35	21	my	-PRON-	PRP$
homer-odyssey-850_16	35	22	own	own	JJ
homer-odyssey-850_16	35	23	house	house	NN
homer-odyssey-850_16	35	24	than	than	IN
homer-odyssey-850_16	35	25	see	see	VB
homer-odyssey-850_16	35	26	such	such	JJ
homer-odyssey-850_16	35	27	disgraceful	disgraceful	JJ
homer-odyssey-850_16	35	28	sights	sight	NNS
homer-odyssey-850_16	35	29	day	day	NN
homer-odyssey-850_16	35	30	after	after	IN
homer-odyssey-850_16	35	31	day	day	NN
homer-odyssey-850_16	35	32	,	,	,
homer-odyssey-850_16	35	33	strangers	stranger	NNS
homer-odyssey-850_16	35	34	grossly	grossly	RB
homer-odyssey-850_16	35	35	maltreated	maltreat	VBD
homer-odyssey-850_16	35	36	,	,	,
homer-odyssey-850_16	35	37	and	and	CC
homer-odyssey-850_16	35	38	men	man	NNS
homer-odyssey-850_16	35	39	dragging	drag	VBG
homer-odyssey-850_16	35	40	the	the	DT
homer-odyssey-850_16	35	41	women	woman	NNS
homer-odyssey-850_16	35	42	servants	servant	NNS
homer-odyssey-850_16	35	43	about	about	IN
homer-odyssey-850_16	35	44	the	the	DT
homer-odyssey-850_16	35	45	house	house	NN
homer-odyssey-850_16	35	46	in	in	IN
homer-odyssey-850_16	35	47	an	an	DT
homer-odyssey-850_16	35	48	unseemly	unseemly	JJ
homer-odyssey-850_16	35	49	way	way	NN
homer-odyssey-850_16	35	50	,	,	,
homer-odyssey-850_16	35	51	wine	wine	NN
homer-odyssey-850_16	35	52	drawn	draw	VBN
homer-odyssey-850_16	35	53	recklessly	recklessly	RB
homer-odyssey-850_16	35	54	,	,	,
homer-odyssey-850_16	35	55	and	and	CC
homer-odyssey-850_16	35	56	bread	bread	NN
homer-odyssey-850_16	35	57	wasted	waste	VBD
homer-odyssey-850_16	35	58	all	all	DT
homer-odyssey-850_16	35	59	to	to	IN
homer-odyssey-850_16	35	60	no	no	DT
homer-odyssey-850_16	35	61	purpose	purpose	NN
homer-odyssey-850_16	35	62	for	for	IN
homer-odyssey-850_16	35	63	an	an	DT
homer-odyssey-850_16	35	64	end	end	NN
homer-odyssey-850_16	35	65	that	that	WDT
homer-odyssey-850_16	35	66	shall	shall	MD
homer-odyssey-850_16	35	67	never	never	RB
homer-odyssey-850_16	35	68	be	be	VB
homer-odyssey-850_16	35	69	accomplished	accomplish	VBN
homer-odyssey-850_16	35	70	.	.	.
homer-odyssey-850_16	35	71	"	"	''
homer-odyssey-850_16	36	1	And	and	CC
homer-odyssey-850_16	36	2	Telemachus	telemachus	NNP
homer-odyssey-850_16	36	3	answered	answer	VBD
homer-odyssey-850_16	36	4	,	,	,
homer-odyssey-850_16	36	5	"	"	``
homer-odyssey-850_16	36	6	I	-PRON-	PRP
homer-odyssey-850_16	36	7	will	will	MD
homer-odyssey-850_16	36	8	tell	tell	VB
homer-odyssey-850_16	36	9	you	-PRON-	PRP
homer-odyssey-850_16	36	10	truly	truly	RB
homer-odyssey-850_16	36	11	everything	everything	NN
homer-odyssey-850_16	36	12	.	.	.
homer-odyssey-850_16	37	1	There	there	EX
homer-odyssey-850_16	37	2	is	be	VBZ
homer-odyssey-850_16	37	3	no	no	DT
homer-odyssey-850_16	37	4	enmity	enmity	NN
homer-odyssey-850_16	37	5	between	between	IN
homer-odyssey-850_16	37	6	me	-PRON-	PRP
homer-odyssey-850_16	37	7	and	and	CC
homer-odyssey-850_16	37	8	my	-PRON-	PRP$
homer-odyssey-850_16	37	9	people	people	NNS
homer-odyssey-850_16	37	10	,	,	,
homer-odyssey-850_16	37	11	nor	nor	CC
homer-odyssey-850_16	37	12	can	can	MD
homer-odyssey-850_16	37	13	I	-PRON-	PRP
homer-odyssey-850_16	37	14	complain	complain	VB
homer-odyssey-850_16	37	15	of	of	IN
homer-odyssey-850_16	37	16	brothers	brother	NNS
homer-odyssey-850_16	37	17	,	,	,
homer-odyssey-850_16	37	18	to	to	TO
homer-odyssey-850_16	37	19	whom	whom	WP
homer-odyssey-850_16	37	20	a	a	DT
homer-odyssey-850_16	37	21	man	man	NN
homer-odyssey-850_16	37	22	may	may	MD
homer-odyssey-850_16	37	23	look	look	VB
homer-odyssey-850_16	37	24	for	for	IN
homer-odyssey-850_16	37	25	support	support	NN
homer-odyssey-850_16	37	26	however	however	RB
homer-odyssey-850_16	37	27	great	great	JJ
homer-odyssey-850_16	37	28	his	-PRON-	PRP$
homer-odyssey-850_16	37	29	quarrel	quarrel	NN
homer-odyssey-850_16	37	30	may	may	MD
homer-odyssey-850_16	37	31	be	be	VB
homer-odyssey-850_16	37	32	.	.	.
homer-odyssey-850_16	38	1	Jove	jove	NNP
homer-odyssey-850_16	38	2	has	have	VBZ
homer-odyssey-850_16	38	3	made	make	VBN
homer-odyssey-850_16	38	4	us	-PRON-	PRP
homer-odyssey-850_16	38	5	a	a	DT
homer-odyssey-850_16	38	6	race	race	NN
homer-odyssey-850_16	38	7	of	of	IN
homer-odyssey-850_16	38	8	only	only	JJ
homer-odyssey-850_16	38	9	sons	son	NNS
homer-odyssey-850_16	38	10	.	.	.
homer-odyssey-850_16	39	1	Laertes	laerte	NNS
homer-odyssey-850_16	39	2	was	be	VBD
homer-odyssey-850_16	39	3	the	the	DT
homer-odyssey-850_16	39	4	only	only	JJ
homer-odyssey-850_16	39	5	son	son	NN
homer-odyssey-850_16	39	6	of	of	IN
homer-odyssey-850_16	39	7	Arceisius	arceisius	NNP
homer-odyssey-850_16	39	8	,	,	,
homer-odyssey-850_16	39	9	and	and	CC
homer-odyssey-850_16	39	10	Ulysses	ulyss	NNS
homer-odyssey-850_16	39	11	only	only	JJ
homer-odyssey-850_16	39	12	son	son	NN
homer-odyssey-850_16	39	13	of	of	IN
homer-odyssey-850_16	39	14	Laertes	laertes	NNP
homer-odyssey-850_16	39	15	.	.	.
homer-odyssey-850_16	40	1	I	-PRON-	PRP
homer-odyssey-850_16	40	2	am	be	VBP
homer-odyssey-850_16	40	3	myself	-PRON-	PRP
homer-odyssey-850_16	40	4	the	the	DT
homer-odyssey-850_16	40	5	only	only	JJ
homer-odyssey-850_16	40	6	son	son	NN
homer-odyssey-850_16	40	7	of	of	IN
homer-odyssey-850_16	40	8	Ulysses	ulysses	NNPS
homer-odyssey-850_16	40	9	who	who	WP
homer-odyssey-850_16	40	10	left	leave	VBD
homer-odyssey-850_16	40	11	me	-PRON-	PRP
homer-odyssey-850_16	40	12	behind	behind	IN
homer-odyssey-850_16	40	13	him	-PRON-	PRP
homer-odyssey-850_16	40	14	when	when	WRB
homer-odyssey-850_16	40	15	he	-PRON-	PRP
homer-odyssey-850_16	40	16	went	go	VBD
homer-odyssey-850_16	40	17	away	away	RB
homer-odyssey-850_16	40	18	,	,	,
homer-odyssey-850_16	40	19	so	so	IN
homer-odyssey-850_16	40	20	that	that	IN
homer-odyssey-850_16	40	21	I	-PRON-	PRP
homer-odyssey-850_16	40	22	have	have	VBP
homer-odyssey-850_16	40	23	never	never	RB
homer-odyssey-850_16	40	24	been	be	VBN
homer-odyssey-850_16	40	25	of	of	IN
homer-odyssey-850_16	40	26	any	any	DT
homer-odyssey-850_16	40	27	use	use	NN
homer-odyssey-850_16	40	28	to	to	IN
homer-odyssey-850_16	40	29	him	-PRON-	PRP
homer-odyssey-850_16	40	30	.	.	.
homer-odyssey-850_16	41	1	Hence	hence	RB
homer-odyssey-850_16	41	2	it	-PRON-	PRP
homer-odyssey-850_16	41	3	comes	come	VBZ
homer-odyssey-850_16	41	4	that	that	IN
homer-odyssey-850_16	41	5	my	-PRON-	PRP$
homer-odyssey-850_16	41	6	house	house	NN
homer-odyssey-850_16	41	7	is	be	VBZ
homer-odyssey-850_16	41	8	in	in	IN
homer-odyssey-850_16	41	9	the	the	DT
homer-odyssey-850_16	41	10	hands	hand	NNS
homer-odyssey-850_16	41	11	of	of	IN
homer-odyssey-850_16	41	12	numberless	numberless	JJ
homer-odyssey-850_16	41	13	marauders	marauder	NNS
homer-odyssey-850_16	41	14	;	;	:
homer-odyssey-850_16	41	15	for	for	IN
homer-odyssey-850_16	41	16	the	the	DT
homer-odyssey-850_16	41	17	chiefs	chief	NNS
homer-odyssey-850_16	41	18	from	from	IN
homer-odyssey-850_16	41	19	all	all	PDT
homer-odyssey-850_16	41	20	the	the	DT
homer-odyssey-850_16	41	21	neighbouring	neighbour	VBG
homer-odyssey-850_16	41	22	islands	island	NNS
homer-odyssey-850_16	41	23	,	,	,
homer-odyssey-850_16	41	24	Dulichium	dulichium	NNP
homer-odyssey-850_16	41	25	,	,	,
homer-odyssey-850_16	41	26	Same	same	NNP
homer-odyssey-850_16	41	27	,	,	,
homer-odyssey-850_16	41	28	Zacynthus	zacynthus	NNP
homer-odyssey-850_16	41	29	,	,	,
homer-odyssey-850_16	41	30	as	as	IN
homer-odyssey-850_16	41	31	also	also	RB
homer-odyssey-850_16	41	32	all	all	PDT
homer-odyssey-850_16	41	33	the	the	DT
homer-odyssey-850_16	41	34	principal	principal	JJ
homer-odyssey-850_16	41	35	men	man	NNS
homer-odyssey-850_16	41	36	of	of	IN
homer-odyssey-850_16	41	37	Ithaca	ithaca	NNP
homer-odyssey-850_16	41	38	itself	-PRON-	PRP
homer-odyssey-850_16	41	39	,	,	,
homer-odyssey-850_16	41	40	are	be	VBP
homer-odyssey-850_16	41	41	eating	eat	VBG
homer-odyssey-850_16	41	42	up	up	RP
homer-odyssey-850_16	41	43	my	-PRON-	PRP$
homer-odyssey-850_16	41	44	house	house	NN
homer-odyssey-850_16	41	45	under	under	IN
homer-odyssey-850_16	41	46	the	the	DT
homer-odyssey-850_16	41	47	pretext	pretext	NN
homer-odyssey-850_16	41	48	of	of	IN
homer-odyssey-850_16	41	49	paying	pay	VBG
homer-odyssey-850_16	41	50	court	court	NN
homer-odyssey-850_16	41	51	to	to	IN
homer-odyssey-850_16	41	52	my	-PRON-	PRP$
homer-odyssey-850_16	41	53	mother	mother	NN
homer-odyssey-850_16	41	54	,	,	,
homer-odyssey-850_16	41	55	who	who	WP
homer-odyssey-850_16	41	56	will	will	MD
homer-odyssey-850_16	41	57	neither	neither	CC
homer-odyssey-850_16	41	58	say	say	VB
homer-odyssey-850_16	41	59	point	point	NN
homer-odyssey-850_16	41	60	blank	blank	JJ
homer-odyssey-850_16	41	61	that	that	IN
homer-odyssey-850_16	41	62	she	-PRON-	PRP
homer-odyssey-850_16	41	63	will	will	MD
homer-odyssey-850_16	41	64	not	not	RB
homer-odyssey-850_16	41	65	marry	marry	VB
homer-odyssey-850_16	41	66	,	,	,
homer-odyssey-850_16	41	67	nor	nor	CC
homer-odyssey-850_16	41	68	yet	yet	RB
homer-odyssey-850_16	41	69	bring	bring	VB
homer-odyssey-850_16	41	70	matters	matter	NNS
homer-odyssey-850_16	41	71	to	to	IN
homer-odyssey-850_16	41	72	an	an	DT
homer-odyssey-850_16	41	73	end	end	NN
homer-odyssey-850_16	41	74	,	,	,
homer-odyssey-850_16	41	75	so	so	CC
homer-odyssey-850_16	41	76	they	-PRON-	PRP
homer-odyssey-850_16	41	77	are	be	VBP
homer-odyssey-850_16	41	78	making	make	VBG
homer-odyssey-850_16	41	79	havoc	havoc	NN
homer-odyssey-850_16	41	80	of	of	IN
homer-odyssey-850_16	41	81	my	-PRON-	PRP$
homer-odyssey-850_16	41	82	estate	estate	NN
homer-odyssey-850_16	41	83	,	,	,
homer-odyssey-850_16	41	84	and	and	CC
homer-odyssey-850_16	41	85	before	before	IN
homer-odyssey-850_16	41	86	long	long	JJ
homer-odyssey-850_16	41	87	will	will	MD
homer-odyssey-850_16	41	88	do	do	VB
homer-odyssey-850_16	41	89	so	so	RB
homer-odyssey-850_16	41	90	with	with	IN
homer-odyssey-850_16	41	91	myself	-PRON-	PRP
homer-odyssey-850_16	41	92	into	into	IN
homer-odyssey-850_16	41	93	the	the	DT
homer-odyssey-850_16	41	94	bargain	bargain	NN
homer-odyssey-850_16	41	95	.	.	.
homer-odyssey-850_16	42	1	The	the	DT
homer-odyssey-850_16	42	2	issue	issue	NN
homer-odyssey-850_16	42	3	,	,	,
homer-odyssey-850_16	42	4	however	however	RB
homer-odyssey-850_16	42	5	,	,	,
homer-odyssey-850_16	42	6	rests	rest	VBZ
homer-odyssey-850_16	42	7	with	with	IN
homer-odyssey-850_16	42	8	heaven	heaven	NNP
homer-odyssey-850_16	42	9	.	.	.
homer-odyssey-850_16	43	1	But	but	CC
homer-odyssey-850_16	43	2	do	do	VBP
homer-odyssey-850_16	43	3	you	-PRON-	PRP
homer-odyssey-850_16	43	4	,	,	,
homer-odyssey-850_16	43	5	old	old	JJ
homer-odyssey-850_16	43	6	friend	friend	NN
homer-odyssey-850_16	43	7	Eumaeus	eumaeus	NNP
homer-odyssey-850_16	43	8	,	,	,
homer-odyssey-850_16	43	9	go	go	VB
homer-odyssey-850_16	43	10	at	at	IN
homer-odyssey-850_16	43	11	once	once	RB
homer-odyssey-850_16	43	12	and	and	CC
homer-odyssey-850_16	43	13	tell	tell	VB
homer-odyssey-850_16	43	14	Penelope	penelope	NNP
homer-odyssey-850_16	43	15	that	that	IN
homer-odyssey-850_16	43	16	I	-PRON-	PRP
homer-odyssey-850_16	43	17	am	be	VBP
homer-odyssey-850_16	43	18	safe	safe	JJ
homer-odyssey-850_16	43	19	and	and	CC
homer-odyssey-850_16	43	20	have	have	VBP
homer-odyssey-850_16	43	21	returned	return	VBN
homer-odyssey-850_16	43	22	from	from	IN
homer-odyssey-850_16	43	23	Pylos	pylos	NNP
homer-odyssey-850_16	43	24	.	.	.
homer-odyssey-850_16	44	1	Tell	tell	VB
homer-odyssey-850_16	44	2	it	-PRON-	PRP
homer-odyssey-850_16	44	3	to	to	IN
homer-odyssey-850_16	44	4	herself	-PRON-	PRP
homer-odyssey-850_16	44	5	alone	alone	RB
homer-odyssey-850_16	44	6	,	,	,
homer-odyssey-850_16	44	7	and	and	CC
homer-odyssey-850_16	44	8	then	then	RB
homer-odyssey-850_16	44	9	come	come	VB
homer-odyssey-850_16	44	10	back	back	RB
homer-odyssey-850_16	44	11	here	here	RB
homer-odyssey-850_16	44	12	without	without	IN
homer-odyssey-850_16	44	13	letting	let	VBG
homer-odyssey-850_16	44	14	any	any	DT
homer-odyssey-850_16	44	15	one	one	NN
homer-odyssey-850_16	44	16	else	else	RB
homer-odyssey-850_16	44	17	know	know	VB
homer-odyssey-850_16	44	18	,	,	,
homer-odyssey-850_16	44	19	for	for	IN
homer-odyssey-850_16	44	20	there	there	EX
homer-odyssey-850_16	44	21	are	be	VBP
homer-odyssey-850_16	44	22	many	many	JJ
homer-odyssey-850_16	44	23	who	who	WP
homer-odyssey-850_16	44	24	are	be	VBP
homer-odyssey-850_16	44	25	plotting	plot	VBG
homer-odyssey-850_16	44	26	mischief	mischief	NN
homer-odyssey-850_16	44	27	against	against	IN
homer-odyssey-850_16	44	28	me	-PRON-	PRP
homer-odyssey-850_16	44	29	.	.	.
homer-odyssey-850_16	44	30	"	"	''
homer-odyssey-850_16	45	1	"	"	``
homer-odyssey-850_16	45	2	I	-PRON-	PRP
homer-odyssey-850_16	45	3	understand	understand	VBP
homer-odyssey-850_16	45	4	and	and	CC
homer-odyssey-850_16	45	5	heed	heed	VBP
homer-odyssey-850_16	45	6	you	-PRON-	PRP
homer-odyssey-850_16	45	7	,	,	,
homer-odyssey-850_16	45	8	"	"	''
homer-odyssey-850_16	45	9	replied	reply	VBD
homer-odyssey-850_16	45	10	Eumaeus	eumaeus	NNP
homer-odyssey-850_16	45	11	;	;	:
homer-odyssey-850_16	45	12	"	"	``
homer-odyssey-850_16	45	13	you	-PRON-	PRP
homer-odyssey-850_16	45	14	need	need	VBP
homer-odyssey-850_16	45	15	instruct	instruct	NN
homer-odyssey-850_16	45	16	me	-PRON-	PRP
homer-odyssey-850_16	45	17	no	no	RB
homer-odyssey-850_16	45	18	further	further	RB
homer-odyssey-850_16	45	19	,	,	,
homer-odyssey-850_16	45	20	only	only	RB
homer-odyssey-850_16	45	21	as	as	IN
homer-odyssey-850_16	45	22	I	-PRON-	PRP
homer-odyssey-850_16	45	23	am	be	VBP
homer-odyssey-850_16	45	24	going	go	VBG
homer-odyssey-850_16	45	25	that	that	DT
homer-odyssey-850_16	45	26	way	way	NN
homer-odyssey-850_16	45	27	say	say	VB
homer-odyssey-850_16	45	28	whether	whether	IN
homer-odyssey-850_16	45	29	I	-PRON-	PRP
homer-odyssey-850_16	45	30	had	have	VBD
homer-odyssey-850_16	45	31	not	not	RB
homer-odyssey-850_16	45	32	better	better	RB
homer-odyssey-850_16	45	33	let	let	VB
homer-odyssey-850_16	45	34	poor	poor	JJ
homer-odyssey-850_16	45	35	Laertes	laerte	NNS
homer-odyssey-850_16	45	36	know	know	VBP
homer-odyssey-850_16	45	37	that	that	IN
homer-odyssey-850_16	45	38	you	-PRON-	PRP
homer-odyssey-850_16	45	39	are	be	VBP
homer-odyssey-850_16	45	40	returned	return	VBN
homer-odyssey-850_16	45	41	.	.	.
homer-odyssey-850_16	46	1	He	-PRON-	PRP
homer-odyssey-850_16	46	2	used	use	VBD
homer-odyssey-850_16	46	3	to	to	TO
homer-odyssey-850_16	46	4	superintend	superintend	VB
homer-odyssey-850_16	46	5	the	the	DT
homer-odyssey-850_16	46	6	work	work	NN
homer-odyssey-850_16	46	7	on	on	IN
homer-odyssey-850_16	46	8	his	-PRON-	PRP$
homer-odyssey-850_16	46	9	farm	farm	NN
homer-odyssey-850_16	46	10	in	in	IN
homer-odyssey-850_16	46	11	spite	spite	NN
homer-odyssey-850_16	46	12	of	of	IN
homer-odyssey-850_16	46	13	his	-PRON-	PRP$
homer-odyssey-850_16	46	14	bitter	bitter	JJ
homer-odyssey-850_16	46	15	sorrow	sorrow	NN
homer-odyssey-850_16	46	16	about	about	IN
homer-odyssey-850_16	46	17	Ulysses	ulysses	NNPS
homer-odyssey-850_16	46	18	,	,	,
homer-odyssey-850_16	46	19	and	and	CC
homer-odyssey-850_16	46	20	he	-PRON-	PRP
homer-odyssey-850_16	46	21	would	would	MD
homer-odyssey-850_16	46	22	eat	eat	VB
homer-odyssey-850_16	46	23	and	and	CC
homer-odyssey-850_16	46	24	drink	drink	VB
homer-odyssey-850_16	46	25	at	at	IN
homer-odyssey-850_16	46	26	will	will	NN
homer-odyssey-850_16	46	27	along	along	IN
homer-odyssey-850_16	46	28	with	with	IN
homer-odyssey-850_16	46	29	his	-PRON-	PRP$
homer-odyssey-850_16	46	30	servants	servant	NNS
homer-odyssey-850_16	46	31	;	;	:
homer-odyssey-850_16	46	32	but	but	CC
homer-odyssey-850_16	46	33	they	-PRON-	PRP
homer-odyssey-850_16	46	34	tell	tell	VBP
homer-odyssey-850_16	46	35	me	-PRON-	PRP
homer-odyssey-850_16	46	36	that	that	IN
homer-odyssey-850_16	46	37	from	from	IN
homer-odyssey-850_16	46	38	the	the	DT
homer-odyssey-850_16	46	39	day	day	NN
homer-odyssey-850_16	46	40	on	on	IN
homer-odyssey-850_16	46	41	which	which	WDT
homer-odyssey-850_16	46	42	you	-PRON-	PRP
homer-odyssey-850_16	46	43	set	set	VBP
homer-odyssey-850_16	46	44	out	out	RP
homer-odyssey-850_16	46	45	for	for	IN
homer-odyssey-850_16	46	46	Pylos	pylos	NNP
homer-odyssey-850_16	46	47	he	-PRON-	PRP
homer-odyssey-850_16	46	48	has	have	VBZ
homer-odyssey-850_16	46	49	neither	neither	CC
homer-odyssey-850_16	46	50	eaten	eat	VBN
homer-odyssey-850_16	46	51	nor	nor	CC
homer-odyssey-850_16	46	52	drunk	drunk	JJ
homer-odyssey-850_16	46	53	as	as	IN
homer-odyssey-850_16	46	54	he	-PRON-	PRP
homer-odyssey-850_16	46	55	ought	ought	MD
homer-odyssey-850_16	46	56	to	to	TO
homer-odyssey-850_16	46	57	do	do	VB
homer-odyssey-850_16	46	58	,	,	,
homer-odyssey-850_16	46	59	nor	nor	CC
homer-odyssey-850_16	46	60	does	do	VBZ
homer-odyssey-850_16	46	61	he	-PRON-	PRP
homer-odyssey-850_16	46	62	look	look	VB
homer-odyssey-850_16	46	63	after	after	IN
homer-odyssey-850_16	46	64	his	-PRON-	PRP$
homer-odyssey-850_16	46	65	farm	farm	NN
homer-odyssey-850_16	46	66	,	,	,
homer-odyssey-850_16	46	67	but	but	CC
homer-odyssey-850_16	46	68	sits	sit	VBZ
homer-odyssey-850_16	46	69	weeping	weeping	NN
homer-odyssey-850_16	46	70	and	and	CC
homer-odyssey-850_16	46	71	wasting	waste	VBG
homer-odyssey-850_16	46	72	the	the	DT
homer-odyssey-850_16	46	73	flesh	flesh	NN
homer-odyssey-850_16	46	74	from	from	IN
homer-odyssey-850_16	46	75	off	off	IN
homer-odyssey-850_16	46	76	his	-PRON-	PRP$
homer-odyssey-850_16	46	77	bones	bone	NNS
homer-odyssey-850_16	46	78	.	.	.
homer-odyssey-850_16	46	79	"	"	''
homer-odyssey-850_16	47	1	"	"	``
homer-odyssey-850_16	47	2	More	more	JJR
homer-odyssey-850_16	47	3	's	be	VBZ
homer-odyssey-850_16	47	4	the	the	DT
homer-odyssey-850_16	47	5	pity	pity	NN
homer-odyssey-850_16	47	6	,	,	,
homer-odyssey-850_16	47	7	"	"	''
homer-odyssey-850_16	47	8	answered	answer	VBD
homer-odyssey-850_16	47	9	Telemachus	telemachus	NN
homer-odyssey-850_16	47	10	,	,	,
homer-odyssey-850_16	47	11	"	"	''
homer-odyssey-850_16	47	12	I	-PRON-	PRP
homer-odyssey-850_16	47	13	am	be	VBP
homer-odyssey-850_16	47	14	sorry	sorry	JJ
homer-odyssey-850_16	47	15	for	for	IN
homer-odyssey-850_16	47	16	him	-PRON-	PRP
homer-odyssey-850_16	47	17	,	,	,
homer-odyssey-850_16	47	18	but	but	CC
homer-odyssey-850_16	47	19	we	-PRON-	PRP
homer-odyssey-850_16	47	20	must	must	MD
homer-odyssey-850_16	47	21	leave	leave	VB
homer-odyssey-850_16	47	22	him	-PRON-	PRP
homer-odyssey-850_16	47	23	to	to	IN
homer-odyssey-850_16	47	24	himself	-PRON-	PRP
homer-odyssey-850_16	47	25	just	just	RB
homer-odyssey-850_16	47	26	now	now	RB
homer-odyssey-850_16	47	27	.	.	.
homer-odyssey-850_16	48	1	If	if	IN
homer-odyssey-850_16	48	2	people	people	NNS
homer-odyssey-850_16	48	3	could	could	MD
homer-odyssey-850_16	48	4	have	have	VB
homer-odyssey-850_16	48	5	everything	everything	NN
homer-odyssey-850_16	48	6	their	-PRON-	PRP$
homer-odyssey-850_16	48	7	own	own	JJ
homer-odyssey-850_16	48	8	way	way	NN
homer-odyssey-850_16	48	9	,	,	,
homer-odyssey-850_16	48	10	the	the	DT
homer-odyssey-850_16	48	11	first	first	JJ
homer-odyssey-850_16	48	12	thing	thing	NN
homer-odyssey-850_16	48	13	I	-PRON-	PRP
homer-odyssey-850_16	48	14	should	should	MD
homer-odyssey-850_16	48	15	choose	choose	VB
homer-odyssey-850_16	48	16	would	would	MD
homer-odyssey-850_16	48	17	be	be	VB
homer-odyssey-850_16	48	18	the	the	DT
homer-odyssey-850_16	48	19	return	return	NN
homer-odyssey-850_16	48	20	of	of	IN
homer-odyssey-850_16	48	21	my	-PRON-	PRP$
homer-odyssey-850_16	48	22	father	father	NN
homer-odyssey-850_16	48	23	;	;	:
homer-odyssey-850_16	48	24	but	but	CC
homer-odyssey-850_16	48	25	go	go	VB
homer-odyssey-850_16	48	26	,	,	,
homer-odyssey-850_16	48	27	and	and	CC
homer-odyssey-850_16	48	28	give	give	VB
homer-odyssey-850_16	48	29	your	-PRON-	PRP$
homer-odyssey-850_16	48	30	message	message	NN
homer-odyssey-850_16	48	31	;	;	:
homer-odyssey-850_16	48	32	then	then	RB
homer-odyssey-850_16	48	33	make	make	VB
homer-odyssey-850_16	48	34	haste	haste	NN
homer-odyssey-850_16	48	35	back	back	RB
homer-odyssey-850_16	48	36	again	again	RB
homer-odyssey-850_16	48	37	,	,	,
homer-odyssey-850_16	48	38	and	and	CC
homer-odyssey-850_16	48	39	do	do	VBP
homer-odyssey-850_16	48	40	not	not	RB
homer-odyssey-850_16	48	41	turn	turn	VB
homer-odyssey-850_16	48	42	out	out	IN
homer-odyssey-850_16	48	43	of	of	IN
homer-odyssey-850_16	48	44	your	-PRON-	PRP$
homer-odyssey-850_16	48	45	way	way	NN
homer-odyssey-850_16	48	46	to	to	TO
homer-odyssey-850_16	48	47	tell	tell	VB
homer-odyssey-850_16	48	48	Laertes	laertes	NNP
homer-odyssey-850_16	48	49	.	.	.
homer-odyssey-850_16	49	1	Tell	tell	VB
homer-odyssey-850_16	49	2	my	-PRON-	PRP$
homer-odyssey-850_16	49	3	mother	mother	NN
homer-odyssey-850_16	49	4	to	to	TO
homer-odyssey-850_16	49	5	send	send	VB
homer-odyssey-850_16	49	6	one	one	CD
homer-odyssey-850_16	49	7	of	of	IN
homer-odyssey-850_16	49	8	her	-PRON-	PRP$
homer-odyssey-850_16	49	9	women	woman	NNS
homer-odyssey-850_16	49	10	secretly	secretly	RB
homer-odyssey-850_16	49	11	with	with	IN
homer-odyssey-850_16	49	12	the	the	DT
homer-odyssey-850_16	49	13	news	news	NN
homer-odyssey-850_16	49	14	at	at	IN
homer-odyssey-850_16	49	15	once	once	RB
homer-odyssey-850_16	49	16	,	,	,
homer-odyssey-850_16	49	17	and	and	CC
homer-odyssey-850_16	49	18	let	let	VB
homer-odyssey-850_16	49	19	him	-PRON-	PRP
homer-odyssey-850_16	49	20	hear	hear	VB
homer-odyssey-850_16	49	21	it	-PRON-	PRP
homer-odyssey-850_16	49	22	from	from	IN
homer-odyssey-850_16	49	23	her	-PRON-	PRP
homer-odyssey-850_16	49	24	.	.	.
homer-odyssey-850_16	49	25	"	"	''
homer-odyssey-850_16	50	1	Thus	thus	RB
homer-odyssey-850_16	50	2	did	do	VBD
homer-odyssey-850_16	50	3	he	-PRON-	PRP
homer-odyssey-850_16	50	4	urge	urge	VB
homer-odyssey-850_16	50	5	the	the	DT
homer-odyssey-850_16	50	6	swineherd	swineherd	NN
homer-odyssey-850_16	50	7	;	;	:
homer-odyssey-850_16	50	8	Eumaeus	eumaeus	NNP
homer-odyssey-850_16	50	9	,	,	,
homer-odyssey-850_16	50	10	therefore	therefore	RB
homer-odyssey-850_16	50	11	,	,	,
homer-odyssey-850_16	50	12	took	take	VBD
homer-odyssey-850_16	50	13	his	-PRON-	PRP$
homer-odyssey-850_16	50	14	sandals	sandal	NNS
homer-odyssey-850_16	50	15	,	,	,
homer-odyssey-850_16	50	16	bound	bind	VBD
homer-odyssey-850_16	50	17	them	-PRON-	PRP
homer-odyssey-850_16	50	18	to	to	IN
homer-odyssey-850_16	50	19	his	-PRON-	PRP$
homer-odyssey-850_16	50	20	feet	foot	NNS
homer-odyssey-850_16	50	21	,	,	,
homer-odyssey-850_16	50	22	and	and	CC
homer-odyssey-850_16	50	23	started	start	VBD
homer-odyssey-850_16	50	24	for	for	IN
homer-odyssey-850_16	50	25	the	the	DT
homer-odyssey-850_16	50	26	town	town	NN
homer-odyssey-850_16	50	27	.	.	.
homer-odyssey-850_16	51	1	Minerva	minerva	NNP
homer-odyssey-850_16	51	2	watched	watch	VBD
homer-odyssey-850_16	51	3	him	-PRON-	PRP
homer-odyssey-850_16	51	4	well	well	RB
homer-odyssey-850_16	51	5	off	off	IN
homer-odyssey-850_16	51	6	the	the	DT
homer-odyssey-850_16	51	7	station	station	NN
homer-odyssey-850_16	51	8	,	,	,
homer-odyssey-850_16	51	9	and	and	CC
homer-odyssey-850_16	51	10	then	then	RB
homer-odyssey-850_16	51	11	came	come	VBD
homer-odyssey-850_16	51	12	up	up	RP
homer-odyssey-850_16	51	13	to	to	IN
homer-odyssey-850_16	51	14	it	-PRON-	PRP
homer-odyssey-850_16	51	15	in	in	IN
homer-odyssey-850_16	51	16	the	the	DT
homer-odyssey-850_16	51	17	form	form	NN
homer-odyssey-850_16	51	18	of	of	IN
homer-odyssey-850_16	51	19	a	a	DT
homer-odyssey-850_16	51	20	woman--	woman--	JJ
homer-odyssey-850_16	51	21	fair	fair	JJ
homer-odyssey-850_16	51	22	,	,	,
homer-odyssey-850_16	51	23	stately	stately	JJ
homer-odyssey-850_16	51	24	,	,	,
homer-odyssey-850_16	51	25	and	and	CC
homer-odyssey-850_16	51	26	wise	wise	JJ
homer-odyssey-850_16	51	27	.	.	.
homer-odyssey-850_16	52	1	She	-PRON-	PRP
homer-odyssey-850_16	52	2	stood	stand	VBD
homer-odyssey-850_16	52	3	against	against	IN
homer-odyssey-850_16	52	4	the	the	DT
homer-odyssey-850_16	52	5	side	side	NN
homer-odyssey-850_16	52	6	of	of	IN
homer-odyssey-850_16	52	7	the	the	DT
homer-odyssey-850_16	52	8	entry	entry	NN
homer-odyssey-850_16	52	9	,	,	,
homer-odyssey-850_16	52	10	and	and	CC
homer-odyssey-850_16	52	11	revealed	reveal	VBD
homer-odyssey-850_16	52	12	herself	-PRON-	PRP
homer-odyssey-850_16	52	13	to	to	IN
homer-odyssey-850_16	52	14	Ulysses	ulyss	NNS
homer-odyssey-850_16	52	15	,	,	,
homer-odyssey-850_16	52	16	but	but	CC
homer-odyssey-850_16	52	17	Telemachus	telemachus	NNP
homer-odyssey-850_16	52	18	could	could	MD
homer-odyssey-850_16	52	19	not	not	RB
homer-odyssey-850_16	52	20	see	see	VB
homer-odyssey-850_16	52	21	her	-PRON-	PRP
homer-odyssey-850_16	52	22	,	,	,
homer-odyssey-850_16	52	23	and	and	CC
homer-odyssey-850_16	52	24	knew	know	VBD
homer-odyssey-850_16	52	25	not	not	RB
homer-odyssey-850_16	52	26	that	that	IN
homer-odyssey-850_16	52	27	she	-PRON-	PRP
homer-odyssey-850_16	52	28	was	be	VBD
homer-odyssey-850_16	52	29	there	there	RB
homer-odyssey-850_16	52	30	,	,	,
homer-odyssey-850_16	52	31	for	for	IN
homer-odyssey-850_16	52	32	the	the	DT
homer-odyssey-850_16	52	33	gods	god	NNS
homer-odyssey-850_16	52	34	do	do	VBP
homer-odyssey-850_16	52	35	not	not	RB
homer-odyssey-850_16	52	36	let	let	VB
homer-odyssey-850_16	52	37	themselves	-PRON-	PRP
homer-odyssey-850_16	52	38	be	be	VB
homer-odyssey-850_16	52	39	seen	see	VBN
homer-odyssey-850_16	52	40	by	by	IN
homer-odyssey-850_16	52	41	everybody	everybody	NN
homer-odyssey-850_16	52	42	.	.	.
homer-odyssey-850_16	53	1	Ulysses	ulyss	NNS
homer-odyssey-850_16	53	2	saw	see	VBD
homer-odyssey-850_16	53	3	her	-PRON-	PRP
homer-odyssey-850_16	53	4	,	,	,
homer-odyssey-850_16	53	5	and	and	CC
homer-odyssey-850_16	53	6	so	so	RB
homer-odyssey-850_16	53	7	did	do	VBD
homer-odyssey-850_16	53	8	the	the	DT
homer-odyssey-850_16	53	9	dogs	dog	NNS
homer-odyssey-850_16	53	10	,	,	,
homer-odyssey-850_16	53	11	for	for	IN
homer-odyssey-850_16	53	12	they	-PRON-	PRP
homer-odyssey-850_16	53	13	did	do	VBD
homer-odyssey-850_16	53	14	not	not	RB
homer-odyssey-850_16	53	15	bark	bark	VB
homer-odyssey-850_16	53	16	,	,	,
homer-odyssey-850_16	53	17	but	but	CC
homer-odyssey-850_16	53	18	went	go	VBD
homer-odyssey-850_16	53	19	scared	scared	JJ
homer-odyssey-850_16	53	20	and	and	CC
homer-odyssey-850_16	53	21	whining	whine	VBG
homer-odyssey-850_16	53	22	off	off	RP
homer-odyssey-850_16	53	23	to	to	IN
homer-odyssey-850_16	53	24	the	the	DT
homer-odyssey-850_16	53	25	other	other	JJ
homer-odyssey-850_16	53	26	side	side	NN
homer-odyssey-850_16	53	27	of	of	IN
homer-odyssey-850_16	53	28	the	the	DT
homer-odyssey-850_16	53	29	yards	yard	NNS
homer-odyssey-850_16	53	30	.	.	.
homer-odyssey-850_16	54	1	She	-PRON-	PRP
homer-odyssey-850_16	54	2	nodded	nod	VBD
homer-odyssey-850_16	54	3	her	-PRON-	PRP$
homer-odyssey-850_16	54	4	head	head	NN
homer-odyssey-850_16	54	5	and	and	CC
homer-odyssey-850_16	54	6	motioned	motion	VBD
homer-odyssey-850_16	54	7	to	to	IN
homer-odyssey-850_16	54	8	Ulysses	ulyss	NNS
homer-odyssey-850_16	54	9	with	with	IN
homer-odyssey-850_16	54	10	her	-PRON-	PRP$
homer-odyssey-850_16	54	11	eyebrows	eyebrow	NNS
homer-odyssey-850_16	54	12	;	;	:
homer-odyssey-850_16	54	13	whereon	whereon	NN
homer-odyssey-850_16	54	14	he	-PRON-	PRP
homer-odyssey-850_16	54	15	left	leave	VBD
homer-odyssey-850_16	54	16	the	the	DT
homer-odyssey-850_16	54	17	hut	hut	NN
homer-odyssey-850_16	54	18	and	and	CC
homer-odyssey-850_16	54	19	stood	stand	VBD
homer-odyssey-850_16	54	20	before	before	IN
homer-odyssey-850_16	54	21	her	-PRON-	PRP$
homer-odyssey-850_16	54	22	outside	outside	IN
homer-odyssey-850_16	54	23	the	the	DT
homer-odyssey-850_16	54	24	main	main	JJ
homer-odyssey-850_16	54	25	wall	wall	NN
homer-odyssey-850_16	54	26	of	of	IN
homer-odyssey-850_16	54	27	the	the	DT
homer-odyssey-850_16	54	28	yards	yard	NNS
homer-odyssey-850_16	54	29	.	.	.
homer-odyssey-850_16	55	1	Then	then	RB
homer-odyssey-850_16	55	2	she	-PRON-	PRP
homer-odyssey-850_16	55	3	said	say	VBD
homer-odyssey-850_16	55	4	to	to	IN
homer-odyssey-850_16	55	5	him	-PRON-	PRP
homer-odyssey-850_16	55	6	:	:	:
homer-odyssey-850_16	55	7	"	"	``
homer-odyssey-850_16	55	8	Ulysses	ulyss	NNS
homer-odyssey-850_16	55	9	,	,	,
homer-odyssey-850_16	55	10	noble	noble	JJ
homer-odyssey-850_16	55	11	son	son	NN
homer-odyssey-850_16	55	12	of	of	IN
homer-odyssey-850_16	55	13	Laertes	laertes	NNP
homer-odyssey-850_16	55	14	,	,	,
homer-odyssey-850_16	55	15	it	-PRON-	PRP
homer-odyssey-850_16	55	16	is	be	VBZ
homer-odyssey-850_16	55	17	now	now	RB
homer-odyssey-850_16	55	18	time	time	NN
homer-odyssey-850_16	55	19	for	for	IN
homer-odyssey-850_16	55	20	you	-PRON-	PRP
homer-odyssey-850_16	55	21	to	to	TO
homer-odyssey-850_16	55	22	tell	tell	VB
homer-odyssey-850_16	55	23	your	-PRON-	PRP$
homer-odyssey-850_16	55	24	son	son	NN
homer-odyssey-850_16	55	25	:	:	:
homer-odyssey-850_16	55	26	do	do	VB
homer-odyssey-850_16	55	27	not	not	RB
homer-odyssey-850_16	55	28	keep	keep	VB
homer-odyssey-850_16	55	29	him	-PRON-	PRP
homer-odyssey-850_16	55	30	in	in	IN
homer-odyssey-850_16	55	31	the	the	DT
homer-odyssey-850_16	55	32	dark	dark	NN
homer-odyssey-850_16	55	33	any	any	RB
homer-odyssey-850_16	55	34	longer	longer	RBR
homer-odyssey-850_16	55	35	,	,	,
homer-odyssey-850_16	55	36	but	but	CC
homer-odyssey-850_16	55	37	lay	lie	VBD
homer-odyssey-850_16	55	38	your	-PRON-	PRP$
homer-odyssey-850_16	55	39	plans	plan	NNS
homer-odyssey-850_16	55	40	for	for	IN
homer-odyssey-850_16	55	41	the	the	DT
homer-odyssey-850_16	55	42	destruction	destruction	NN
homer-odyssey-850_16	55	43	of	of	IN
homer-odyssey-850_16	55	44	the	the	DT
homer-odyssey-850_16	55	45	suitors	suitor	NNS
homer-odyssey-850_16	55	46	,	,	,
homer-odyssey-850_16	55	47	and	and	CC
homer-odyssey-850_16	55	48	then	then	RB
homer-odyssey-850_16	55	49	make	make	VB
homer-odyssey-850_16	55	50	for	for	IN
homer-odyssey-850_16	55	51	the	the	DT
homer-odyssey-850_16	55	52	town	town	NN
homer-odyssey-850_16	55	53	.	.	.
homer-odyssey-850_16	56	1	I	-PRON-	PRP
homer-odyssey-850_16	56	2	will	will	MD
homer-odyssey-850_16	56	3	not	not	RB
homer-odyssey-850_16	56	4	be	be	VB
homer-odyssey-850_16	56	5	long	long	JJ
homer-odyssey-850_16	56	6	in	in	IN
homer-odyssey-850_16	56	7	joining	join	VBG
homer-odyssey-850_16	56	8	you	-PRON-	PRP
homer-odyssey-850_16	56	9	,	,	,
homer-odyssey-850_16	56	10	for	for	IN
homer-odyssey-850_16	56	11	I	-PRON-	PRP
homer-odyssey-850_16	56	12	too	too	RB
homer-odyssey-850_16	56	13	am	be	VBP
homer-odyssey-850_16	56	14	eager	eager	JJ
homer-odyssey-850_16	56	15	for	for	IN
homer-odyssey-850_16	56	16	the	the	DT
homer-odyssey-850_16	56	17	fray	fray	NN
homer-odyssey-850_16	56	18	.	.	.
homer-odyssey-850_16	56	19	"	"	''
homer-odyssey-850_16	57	1	As	as	IN
homer-odyssey-850_16	57	2	she	-PRON-	PRP
homer-odyssey-850_16	57	3	spoke	speak	VBD
homer-odyssey-850_16	57	4	she	-PRON-	PRP
homer-odyssey-850_16	57	5	touched	touch	VBD
homer-odyssey-850_16	57	6	him	-PRON-	PRP
homer-odyssey-850_16	57	7	with	with	IN
homer-odyssey-850_16	57	8	her	-PRON-	PRP$
homer-odyssey-850_16	57	9	golden	golden	JJ
homer-odyssey-850_16	57	10	wand	wand	NN
homer-odyssey-850_16	57	11	.	.	.
homer-odyssey-850_16	58	1	First	first	RB
homer-odyssey-850_16	58	2	she	-PRON-	PRP
homer-odyssey-850_16	58	3	threw	throw	VBD
homer-odyssey-850_16	58	4	a	a	DT
homer-odyssey-850_16	58	5	fair	fair	JJ
homer-odyssey-850_16	58	6	clean	clean	JJ
homer-odyssey-850_16	58	7	shirt	shirt	NN
homer-odyssey-850_16	58	8	and	and	CC
homer-odyssey-850_16	58	9	cloak	cloak	VB
homer-odyssey-850_16	58	10	about	about	IN
homer-odyssey-850_16	58	11	his	-PRON-	PRP$
homer-odyssey-850_16	58	12	shoulders	shoulder	NNS
homer-odyssey-850_16	58	13	;	;	:
homer-odyssey-850_16	58	14	then	then	RB
homer-odyssey-850_16	58	15	she	-PRON-	PRP
homer-odyssey-850_16	58	16	made	make	VBD
homer-odyssey-850_16	58	17	him	-PRON-	PRP
homer-odyssey-850_16	58	18	younger	young	JJR
homer-odyssey-850_16	58	19	and	and	CC
homer-odyssey-850_16	58	20	of	of	IN
homer-odyssey-850_16	58	21	more	more	RBR
homer-odyssey-850_16	58	22	imposing	impose	VBG
homer-odyssey-850_16	58	23	presence	presence	NN
homer-odyssey-850_16	58	24	;	;	:
homer-odyssey-850_16	58	25	she	-PRON-	PRP
homer-odyssey-850_16	58	26	gave	give	VBD
homer-odyssey-850_16	58	27	him	-PRON-	PRP
homer-odyssey-850_16	58	28	back	back	RB
homer-odyssey-850_16	58	29	his	-PRON-	PRP$
homer-odyssey-850_16	58	30	colour	colour	NN
homer-odyssey-850_16	58	31	,	,	,
homer-odyssey-850_16	58	32	filled	fill	VBD
homer-odyssey-850_16	58	33	out	out	RP
homer-odyssey-850_16	58	34	his	-PRON-	PRP$
homer-odyssey-850_16	58	35	cheeks	cheek	NNS
homer-odyssey-850_16	58	36	,	,	,
homer-odyssey-850_16	58	37	and	and	CC
homer-odyssey-850_16	58	38	let	let	VB
homer-odyssey-850_16	58	39	his	-PRON-	PRP$
homer-odyssey-850_16	58	40	beard	beard	NN
homer-odyssey-850_16	58	41	become	become	VB
homer-odyssey-850_16	58	42	dark	dark	JJ
homer-odyssey-850_16	58	43	again	again	RB
homer-odyssey-850_16	58	44	.	.	.
homer-odyssey-850_16	59	1	Then	then	RB
homer-odyssey-850_16	59	2	she	-PRON-	PRP
homer-odyssey-850_16	59	3	went	go	VBD
homer-odyssey-850_16	59	4	away	away	RB
homer-odyssey-850_16	59	5	and	and	CC
homer-odyssey-850_16	59	6	Ulysses	ulyss	NNS
homer-odyssey-850_16	59	7	came	come	VBD
homer-odyssey-850_16	59	8	back	back	RB
homer-odyssey-850_16	59	9	inside	inside	IN
homer-odyssey-850_16	59	10	the	the	DT
homer-odyssey-850_16	59	11	hut	hut	NN
homer-odyssey-850_16	59	12	.	.	.
homer-odyssey-850_16	60	1	His	-PRON-	PRP$
homer-odyssey-850_16	60	2	son	son	NN
homer-odyssey-850_16	60	3	was	be	VBD
homer-odyssey-850_16	60	4	astounded	astounded	JJ
homer-odyssey-850_16	60	5	when	when	WRB
homer-odyssey-850_16	60	6	he	-PRON-	PRP
homer-odyssey-850_16	60	7	saw	see	VBD
homer-odyssey-850_16	60	8	him	-PRON-	PRP
homer-odyssey-850_16	60	9	,	,	,
homer-odyssey-850_16	60	10	and	and	CC
homer-odyssey-850_16	60	11	turned	turn	VBD
homer-odyssey-850_16	60	12	his	-PRON-	PRP$
homer-odyssey-850_16	60	13	eyes	eye	NNS
homer-odyssey-850_16	60	14	away	away	RB
homer-odyssey-850_16	60	15	for	for	IN
homer-odyssey-850_16	60	16	fear	fear	NN
homer-odyssey-850_16	60	17	he	-PRON-	PRP
homer-odyssey-850_16	60	18	might	may	MD
homer-odyssey-850_16	60	19	be	be	VB
homer-odyssey-850_16	60	20	looking	look	VBG
homer-odyssey-850_16	60	21	upon	upon	IN
homer-odyssey-850_16	60	22	a	a	DT
homer-odyssey-850_16	60	23	god	god	NN
homer-odyssey-850_16	60	24	.	.	.
homer-odyssey-850_16	61	1	"	"	``
homer-odyssey-850_16	61	2	Stranger	stranger	NNP
homer-odyssey-850_16	61	3	,	,	,
homer-odyssey-850_16	61	4	"	"	''
homer-odyssey-850_16	61	5	said	say	VBD
homer-odyssey-850_16	61	6	he	-PRON-	PRP
homer-odyssey-850_16	61	7	,	,	,
homer-odyssey-850_16	61	8	"	"	``
homer-odyssey-850_16	61	9	how	how	WRB
homer-odyssey-850_16	61	10	suddenly	suddenly	RB
homer-odyssey-850_16	61	11	you	-PRON-	PRP
homer-odyssey-850_16	61	12	have	have	VBP
homer-odyssey-850_16	61	13	changed	change	VBN
homer-odyssey-850_16	61	14	from	from	IN
homer-odyssey-850_16	61	15	what	what	WP
homer-odyssey-850_16	61	16	you	-PRON-	PRP
homer-odyssey-850_16	61	17	were	be	VBD
homer-odyssey-850_16	61	18	a	a	DT
homer-odyssey-850_16	61	19	moment	moment	NN
homer-odyssey-850_16	61	20	or	or	CC
homer-odyssey-850_16	61	21	two	two	CD
homer-odyssey-850_16	61	22	ago	ago	RB
homer-odyssey-850_16	61	23	.	.	.
homer-odyssey-850_16	62	1	You	-PRON-	PRP
homer-odyssey-850_16	62	2	are	be	VBP
homer-odyssey-850_16	62	3	dressed	dress	VBN
homer-odyssey-850_16	62	4	differently	differently	RB
homer-odyssey-850_16	62	5	and	and	CC
homer-odyssey-850_16	62	6	your	-PRON-	PRP$
homer-odyssey-850_16	62	7	colour	colour	NN
homer-odyssey-850_16	62	8	is	be	VBZ
homer-odyssey-850_16	62	9	not	not	RB
homer-odyssey-850_16	62	10	the	the	DT
homer-odyssey-850_16	62	11	same	same	JJ
homer-odyssey-850_16	62	12	.	.	.
homer-odyssey-850_16	63	1	Are	be	VBP
homer-odyssey-850_16	63	2	you	-PRON-	PRP
homer-odyssey-850_16	63	3	some	some	DT
homer-odyssey-850_16	63	4	one	one	CD
[...]
homer-odyssey-850_16	147	25	these	these	DT
homer-odyssey-850_16	147	26	matters	matter	NNS
homer-odyssey-850_16	147	27	.	.	.
homer-odyssey-850_16	148	1	The	the	DT
homer-odyssey-850_16	148	2	man	man	NN
homer-odyssey-850_16	148	3	is	be	VBZ
homer-odyssey-850_16	148	4	not	not	RB
homer-odyssey-850_16	148	5	yet	yet	RB
homer-odyssey-850_16	148	6	born	bear	VBN
homer-odyssey-850_16	148	7	,	,	,
homer-odyssey-850_16	148	8	nor	nor	CC
homer-odyssey-850_16	148	9	never	never	RB
homer-odyssey-850_16	148	10	will	will	MD
homer-odyssey-850_16	148	11	be	be	VB
homer-odyssey-850_16	148	12	,	,	,
homer-odyssey-850_16	148	13	who	who	WP
homer-odyssey-850_16	148	14	shall	shall	MD
homer-odyssey-850_16	148	15	lay	lay	VB
homer-odyssey-850_16	148	16	hands	hand	NNS
homer-odyssey-850_16	148	17	upon	upon	IN
homer-odyssey-850_16	148	18	your	-PRON-	PRP$
homer-odyssey-850_16	148	19	son	son	NN
homer-odyssey-850_16	148	20	Telemachus	telemachus	NNP
homer-odyssey-850_16	148	21	,	,	,
homer-odyssey-850_16	148	22	while	while	IN
homer-odyssey-850_16	148	23	I	-PRON-	PRP
homer-odyssey-850_16	148	24	yet	yet	RB
homer-odyssey-850_16	148	25	live	live	VBP
homer-odyssey-850_16	148	26	to	to	TO
homer-odyssey-850_16	148	27	look	look	VB
homer-odyssey-850_16	148	28	upon	upon	IN
homer-odyssey-850_16	148	29	the	the	DT
homer-odyssey-850_16	148	30	face	face	NN
homer-odyssey-850_16	148	31	of	of	IN
homer-odyssey-850_16	148	32	the	the	DT
homer-odyssey-850_16	148	33	earth	earth	NN
homer-odyssey-850_16	148	34	.	.	.
homer-odyssey-850_16	149	1	I	-PRON-	PRP
homer-odyssey-850_16	149	2	say--	say--	VBP
homer-odyssey-850_16	149	3	and	and	CC
homer-odyssey-850_16	149	4	it	-PRON-	PRP
homer-odyssey-850_16	149	5	shall	shall	MD
homer-odyssey-850_16	149	6	surely	surely	RB
homer-odyssey-850_16	149	7	be--	be--	VB
homer-odyssey-850_16	149	8	that	that	IN
homer-odyssey-850_16	149	9	my	-PRON-	PRP$
homer-odyssey-850_16	149	10	spear	spear	NN
homer-odyssey-850_16	149	11	shall	shall	MD
homer-odyssey-850_16	149	12	be	be	VB
homer-odyssey-850_16	149	13	reddened	redden	VBN
homer-odyssey-850_16	149	14	with	with	IN
homer-odyssey-850_16	149	15	his	-PRON-	PRP$
homer-odyssey-850_16	149	16	blood	blood	NN
homer-odyssey-850_16	149	17	;	;	:
homer-odyssey-850_16	149	18	for	for	IN
homer-odyssey-850_16	149	19	many	many	JJ
homer-odyssey-850_16	149	20	a	a	DT
homer-odyssey-850_16	149	21	time	time	NN
homer-odyssey-850_16	149	22	has	have	VBZ
homer-odyssey-850_16	149	23	Ulysses	ulyss	NNS
homer-odyssey-850_16	149	24	taken	take	VBN
homer-odyssey-850_16	149	25	me	-PRON-	PRP
homer-odyssey-850_16	149	26	on	on	IN
homer-odyssey-850_16	149	27	his	-PRON-	PRP$
homer-odyssey-850_16	149	28	knees	knee	NNS
homer-odyssey-850_16	149	29	,	,	,
homer-odyssey-850_16	149	30	held	hold	VBD
homer-odyssey-850_16	149	31	wine	wine	NN
homer-odyssey-850_16	149	32	up	up	RP
homer-odyssey-850_16	149	33	to	to	IN
homer-odyssey-850_16	149	34	my	-PRON-	PRP$
homer-odyssey-850_16	149	35	lips	lip	NNS
homer-odyssey-850_16	149	36	to	to	TO
homer-odyssey-850_16	149	37	drink	drink	VB
homer-odyssey-850_16	149	38	,	,	,
homer-odyssey-850_16	149	39	and	and	CC
homer-odyssey-850_16	149	40	put	put	VB
homer-odyssey-850_16	149	41	pieces	piece	NNS
homer-odyssey-850_16	149	42	of	of	IN
homer-odyssey-850_16	149	43	meat	meat	NN
homer-odyssey-850_16	149	44	into	into	IN
homer-odyssey-850_16	149	45	my	-PRON-	PRP$
homer-odyssey-850_16	149	46	hands	hand	NNS
homer-odyssey-850_16	149	47	.	.	.
homer-odyssey-850_16	150	1	Therefore	therefore	RB
homer-odyssey-850_16	150	2	Telemachus	telemachus	NNP
homer-odyssey-850_16	150	3	is	be	VBZ
homer-odyssey-850_16	150	4	much	much	RB
homer-odyssey-850_16	150	5	the	the	DT
homer-odyssey-850_16	150	6	dearest	dear	JJS
homer-odyssey-850_16	150	7	friend	friend	NN
homer-odyssey-850_16	150	8	I	-PRON-	PRP
homer-odyssey-850_16	150	9	have	have	VBP
homer-odyssey-850_16	150	10	,	,	,
homer-odyssey-850_16	150	11	and	and	CC
homer-odyssey-850_16	150	12	has	have	VBZ
homer-odyssey-850_16	150	13	nothing	nothing	NN
homer-odyssey-850_16	150	14	to	to	TO
homer-odyssey-850_16	150	15	fear	fear	VB
homer-odyssey-850_16	150	16	from	from	IN
homer-odyssey-850_16	150	17	the	the	DT
homer-odyssey-850_16	150	18	hands	hand	NNS
homer-odyssey-850_16	150	19	of	of	IN
homer-odyssey-850_16	150	20	us	-PRON-	PRP
homer-odyssey-850_16	150	21	suitors	suitor	NNS
homer-odyssey-850_16	150	22	.	.	.
homer-odyssey-850_16	151	1	Of	of	RB
homer-odyssey-850_16	151	2	course	course	RB
homer-odyssey-850_16	151	3	,	,	,
homer-odyssey-850_16	151	4	if	if	IN
homer-odyssey-850_16	151	5	death	death	NN
homer-odyssey-850_16	151	6	comes	come	VBZ
homer-odyssey-850_16	151	7	to	to	IN
homer-odyssey-850_16	151	8	him	-PRON-	PRP
homer-odyssey-850_16	151	9	from	from	IN
homer-odyssey-850_16	151	10	the	the	DT
homer-odyssey-850_16	151	11	gods	god	NNS
homer-odyssey-850_16	151	12	,	,	,
homer-odyssey-850_16	151	13	he	-PRON-	PRP
homer-odyssey-850_16	151	14	can	can	MD
homer-odyssey-850_16	151	15	not	not	RB
homer-odyssey-850_16	151	16	escape	escape	VB
homer-odyssey-850_16	151	17	it	-PRON-	PRP
homer-odyssey-850_16	151	18	.	.	.
homer-odyssey-850_16	151	19	"	"	''
homer-odyssey-850_16	152	1	He	-PRON-	PRP
homer-odyssey-850_16	152	2	said	say	VBD
homer-odyssey-850_16	152	3	this	this	DT
homer-odyssey-850_16	152	4	to	to	TO
homer-odyssey-850_16	152	5	quiet	quiet	VB
homer-odyssey-850_16	152	6	her	-PRON-	PRP
homer-odyssey-850_16	152	7	,	,	,
homer-odyssey-850_16	152	8	but	but	CC
homer-odyssey-850_16	152	9	in	in	IN
homer-odyssey-850_16	152	10	reality	reality	NN
homer-odyssey-850_16	152	11	he	-PRON-	PRP
homer-odyssey-850_16	152	12	was	be	VBD
homer-odyssey-850_16	152	13	plotting	plot	VBG
homer-odyssey-850_16	152	14	against	against	IN
homer-odyssey-850_16	152	15	Telemachus	telemachus	NNP
homer-odyssey-850_16	152	16	.	.	.
homer-odyssey-850_16	153	1	Then	then	RB
homer-odyssey-850_16	153	2	Penelope	penelope	NNP
homer-odyssey-850_16	153	3	went	go	VBD
homer-odyssey-850_16	153	4	upstairs	upstairs	RB
homer-odyssey-850_16	153	5	again	again	RB
homer-odyssey-850_16	153	6	and	and	CC
homer-odyssey-850_16	153	7	mourned	mourn	VBD
homer-odyssey-850_16	153	8	her	-PRON-	PRP$
homer-odyssey-850_16	153	9	husband	husband	NN
homer-odyssey-850_16	153	10	till	till	IN
homer-odyssey-850_16	153	11	Minerva	minerva	NNP
homer-odyssey-850_16	153	12	shed	shed	VBD
homer-odyssey-850_16	153	13	sleep	sleep	NN
homer-odyssey-850_16	153	14	over	over	IN
homer-odyssey-850_16	153	15	her	-PRON-	PRP$
homer-odyssey-850_16	153	16	eyes	eye	NNS
homer-odyssey-850_16	153	17	.	.	.
homer-odyssey-850_16	154	1	In	in	IN
homer-odyssey-850_16	154	2	the	the	DT
homer-odyssey-850_16	154	3	evening	evening	NN
homer-odyssey-850_16	154	4	Eumaeus	eumaeus	NNP
homer-odyssey-850_16	154	5	got	get	VBD
homer-odyssey-850_16	154	6	back	back	RB
homer-odyssey-850_16	154	7	to	to	IN
homer-odyssey-850_16	154	8	Ulysses	ulyss	NNS
homer-odyssey-850_16	154	9	and	and	CC
homer-odyssey-850_16	154	10	his	-PRON-	PRP$
homer-odyssey-850_16	154	11	son	son	NN
homer-odyssey-850_16	154	12	,	,	,
homer-odyssey-850_16	154	13	who	who	WP
homer-odyssey-850_16	154	14	had	have	VBD
homer-odyssey-850_16	154	15	just	just	RB
homer-odyssey-850_16	154	16	sacrificed	sacrifice	VBN
homer-odyssey-850_16	154	17	a	a	DT
homer-odyssey-850_16	154	18	young	young	JJ
homer-odyssey-850_16	154	19	pig	pig	NN
homer-odyssey-850_16	154	20	of	of	IN
homer-odyssey-850_16	154	21	a	a	DT
homer-odyssey-850_16	154	22	year	year	NN
homer-odyssey-850_16	154	23	old	old	JJ
homer-odyssey-850_16	154	24	and	and	CC
homer-odyssey-850_16	154	25	were	be	VBD
homer-odyssey-850_16	154	26	helping	help	VBG
homer-odyssey-850_16	154	27	one	one	CD
homer-odyssey-850_16	154	28	another	another	DT
homer-odyssey-850_16	154	29	to	to	TO
homer-odyssey-850_16	154	30	get	get	VB
homer-odyssey-850_16	154	31	supper	supper	NN
homer-odyssey-850_16	154	32	ready	ready	JJ
homer-odyssey-850_16	154	33	;	;	:
homer-odyssey-850_16	154	34	Minerva	minerva	NNP
homer-odyssey-850_16	154	35	therefore	therefore	RB
homer-odyssey-850_16	154	36	came	come	VBD
homer-odyssey-850_16	154	37	up	up	RP
homer-odyssey-850_16	154	38	to	to	IN
homer-odyssey-850_16	154	39	Ulysses	ulysses	NNPS
homer-odyssey-850_16	154	40	,	,	,
homer-odyssey-850_16	154	41	turned	turn	VBD
homer-odyssey-850_16	154	42	him	-PRON-	PRP
homer-odyssey-850_16	154	43	into	into	IN
homer-odyssey-850_16	154	44	an	an	DT
homer-odyssey-850_16	154	45	old	old	JJ
homer-odyssey-850_16	154	46	man	man	NN
homer-odyssey-850_16	154	47	with	with	IN
homer-odyssey-850_16	154	48	a	a	DT
homer-odyssey-850_16	154	49	stroke	stroke	NN
homer-odyssey-850_16	154	50	of	of	IN
homer-odyssey-850_16	154	51	her	-PRON-	PRP$
homer-odyssey-850_16	154	52	wand	wand	NN
homer-odyssey-850_16	154	53	,	,	,
homer-odyssey-850_16	154	54	and	and	CC
homer-odyssey-850_16	154	55	clad	clothe	VBD
homer-odyssey-850_16	154	56	him	-PRON-	PRP
homer-odyssey-850_16	154	57	in	in	IN
homer-odyssey-850_16	154	58	his	-PRON-	PRP$
homer-odyssey-850_16	154	59	old	old	JJ
homer-odyssey-850_16	154	60	clothes	clothe	NNS
homer-odyssey-850_16	154	61	again	again	RB
homer-odyssey-850_16	154	62	,	,	,
homer-odyssey-850_16	154	63	for	for	IN
homer-odyssey-850_16	154	64	fear	fear	NN
homer-odyssey-850_16	154	65	that	that	IN
homer-odyssey-850_16	154	66	the	the	DT
homer-odyssey-850_16	154	67	swineherd	swineherd	NN
homer-odyssey-850_16	154	68	might	may	MD
homer-odyssey-850_16	154	69	recognise	recognise	VB
homer-odyssey-850_16	154	70	him	-PRON-	PRP
homer-odyssey-850_16	154	71	and	and	CC
homer-odyssey-850_16	154	72	not	not	RB
homer-odyssey-850_16	154	73	keep	keep	VB
homer-odyssey-850_16	154	74	the	the	DT
homer-odyssey-850_16	154	75	secret	secret	NN
homer-odyssey-850_16	154	76	,	,	,
homer-odyssey-850_16	154	77	but	but	CC
homer-odyssey-850_16	154	78	go	go	VB
homer-odyssey-850_16	154	79	and	and	CC
homer-odyssey-850_16	154	80	tell	tell	VB
homer-odyssey-850_16	154	81	Penelope	penelope	NNP
homer-odyssey-850_16	154	82	.	.	.
homer-odyssey-850_16	155	1	Telemachus	telemachus	NNP
homer-odyssey-850_16	155	2	was	be	VBD
homer-odyssey-850_16	155	3	the	the	DT
homer-odyssey-850_16	155	4	first	first	JJ
homer-odyssey-850_16	155	5	to	to	TO
homer-odyssey-850_16	155	6	speak	speak	VB
homer-odyssey-850_16	155	7	.	.	.
homer-odyssey-850_16	155	8	"	"	''
homer-odyssey-850_16	156	1	So	so	RB
homer-odyssey-850_16	156	2	you	-PRON-	PRP
homer-odyssey-850_16	156	3	have	have	VBP
homer-odyssey-850_16	156	4	got	get	VBN
homer-odyssey-850_16	156	5	back	back	RB
homer-odyssey-850_16	156	6	,	,	,
homer-odyssey-850_16	156	7	Eumaeus	eumaeus	NNP
homer-odyssey-850_16	156	8	,	,	,
homer-odyssey-850_16	156	9	"	"	''
homer-odyssey-850_16	156	10	said	say	VBD
homer-odyssey-850_16	156	11	he	-PRON-	PRP
homer-odyssey-850_16	156	12	.	.	.
homer-odyssey-850_16	157	1	"	"	``
homer-odyssey-850_16	157	2	What	what	WP
homer-odyssey-850_16	157	3	is	be	VBZ
homer-odyssey-850_16	157	4	the	the	DT
homer-odyssey-850_16	157	5	news	news	NN
homer-odyssey-850_16	157	6	of	of	IN
homer-odyssey-850_16	157	7	the	the	DT
homer-odyssey-850_16	157	8	town	town	NN
homer-odyssey-850_16	157	9	?	?	.
homer-odyssey-850_16	158	1	Have	have	VBP
homer-odyssey-850_16	158	2	the	the	DT
homer-odyssey-850_16	158	3	suitors	suitor	NNS
homer-odyssey-850_16	158	4	returned	return	VBN
homer-odyssey-850_16	158	5	,	,	,
homer-odyssey-850_16	158	6	or	or	CC
homer-odyssey-850_16	158	7	are	be	VBP
homer-odyssey-850_16	158	8	they	-PRON-	PRP
homer-odyssey-850_16	158	9	still	still	RB
homer-odyssey-850_16	158	10	waiting	wait	VBG
homer-odyssey-850_16	158	11	over	over	IN
homer-odyssey-850_16	158	12	yonder	yonder	NN
homer-odyssey-850_16	158	13	,	,	,
homer-odyssey-850_16	158	14	to	to	TO
homer-odyssey-850_16	158	15	take	take	VB
homer-odyssey-850_16	158	16	me	-PRON-	PRP
homer-odyssey-850_16	158	17	on	on	IN
homer-odyssey-850_16	158	18	my	-PRON-	PRP$
homer-odyssey-850_16	158	19	way	way	NN
homer-odyssey-850_16	158	20	home	home	RB
homer-odyssey-850_16	158	21	?	?	.
homer-odyssey-850_16	158	22	"	"	''
homer-odyssey-850_16	159	1	"	"	``
homer-odyssey-850_16	159	2	I	-PRON-	PRP
homer-odyssey-850_16	159	3	did	do	VBD
homer-odyssey-850_16	159	4	not	not	RB
homer-odyssey-850_16	159	5	think	think	VB
homer-odyssey-850_16	159	6	of	of	IN
homer-odyssey-850_16	159	7	asking	ask	VBG
homer-odyssey-850_16	159	8	about	about	IN
homer-odyssey-850_16	159	9	that	that	DT
homer-odyssey-850_16	159	10	,	,	,
homer-odyssey-850_16	159	11	"	"	''
homer-odyssey-850_16	159	12	replied	reply	VBD
homer-odyssey-850_16	159	13	Eumaeus	eumaeus	NNP
homer-odyssey-850_16	159	14	,	,	,
homer-odyssey-850_16	159	15	"	"	``
homer-odyssey-850_16	159	16	when	when	WRB
homer-odyssey-850_16	159	17	I	-PRON-	PRP
homer-odyssey-850_16	159	18	was	be	VBD
homer-odyssey-850_16	159	19	in	in	IN
homer-odyssey-850_16	159	20	the	the	DT
homer-odyssey-850_16	159	21	town	town	NN
homer-odyssey-850_16	159	22	.	.	.
homer-odyssey-850_16	160	1	I	-PRON-	PRP
homer-odyssey-850_16	160	2	thought	think	VBD
homer-odyssey-850_16	160	3	I	-PRON-	PRP
homer-odyssey-850_16	160	4	would	would	MD
homer-odyssey-850_16	160	5	give	give	VB
homer-odyssey-850_16	160	6	my	-PRON-	PRP$
homer-odyssey-850_16	160	7	message	message	NN
homer-odyssey-850_16	160	8	and	and	CC
homer-odyssey-850_16	160	9	come	come	VB
homer-odyssey-850_16	160	10	back	back	RB
homer-odyssey-850_16	160	11	as	as	RB
homer-odyssey-850_16	160	12	soon	soon	RB
homer-odyssey-850_16	160	13	as	as	IN
homer-odyssey-850_16	160	14	I	-PRON-	PRP
homer-odyssey-850_16	160	15	could	could	MD
homer-odyssey-850_16	160	16	.	.	.
homer-odyssey-850_16	161	1	I	-PRON-	PRP
homer-odyssey-850_16	161	2	met	meet	VBD
homer-odyssey-850_16	161	3	a	a	DT
homer-odyssey-850_16	161	4	man	man	NN
homer-odyssey-850_16	161	5	sent	send	VBN
homer-odyssey-850_16	161	6	by	by	IN
homer-odyssey-850_16	161	7	those	those	DT
homer-odyssey-850_16	161	8	who	who	WP
homer-odyssey-850_16	161	9	had	have	VBD
homer-odyssey-850_16	161	10	gone	go	VBN
homer-odyssey-850_16	161	11	with	with	IN
homer-odyssey-850_16	161	12	you	-PRON-	PRP
homer-odyssey-850_16	161	13	to	to	IN
homer-odyssey-850_16	161	14	Pylos	pylos	NNP
homer-odyssey-850_16	161	15	,	,	,
homer-odyssey-850_16	161	16	and	and	CC
homer-odyssey-850_16	161	17	he	-PRON-	PRP
homer-odyssey-850_16	161	18	was	be	VBD
homer-odyssey-850_16	161	19	the	the	DT
homer-odyssey-850_16	161	20	first	first	JJ
homer-odyssey-850_16	161	21	to	to	TO
homer-odyssey-850_16	161	22	tell	tell	VB
homer-odyssey-850_16	161	23	the	the	DT
homer-odyssey-850_16	161	24	news	news	NN
homer-odyssey-850_16	161	25	to	to	IN
homer-odyssey-850_16	161	26	your	-PRON-	PRP$
homer-odyssey-850_16	161	27	mother	mother	NN
homer-odyssey-850_16	161	28	,	,	,
homer-odyssey-850_16	161	29	but	but	CC
homer-odyssey-850_16	161	30	I	-PRON-	PRP
homer-odyssey-850_16	161	31	can	can	MD
homer-odyssey-850_16	161	32	say	say	VB
homer-odyssey-850_16	161	33	what	what	WP
homer-odyssey-850_16	161	34	I	-PRON-	PRP
homer-odyssey-850_16	161	35	saw	see	VBD
homer-odyssey-850_16	161	36	with	with	IN
homer-odyssey-850_16	161	37	my	-PRON-	PRP$
homer-odyssey-850_16	161	38	own	own	JJ
homer-odyssey-850_16	161	39	eyes	eye	NNS
homer-odyssey-850_16	161	40	;	;	:
homer-odyssey-850_16	161	41	I	-PRON-	PRP
homer-odyssey-850_16	161	42	had	have	VBD
homer-odyssey-850_16	161	43	just	just	RB
homer-odyssey-850_16	161	44	got	get	VBN
homer-odyssey-850_16	161	45	on	on	RP
homer-odyssey-850_16	161	46	to	to	IN
homer-odyssey-850_16	161	47	the	the	DT
homer-odyssey-850_16	161	48	crest	crest	NN
homer-odyssey-850_16	161	49	of	of	IN
homer-odyssey-850_16	161	50	the	the	DT
homer-odyssey-850_16	161	51	hill	hill	NN
homer-odyssey-850_16	161	52	of	of	IN
homer-odyssey-850_16	161	53	Mercury	mercury	NNP
homer-odyssey-850_16	161	54	above	above	IN
homer-odyssey-850_16	161	55	the	the	DT
homer-odyssey-850_16	161	56	town	town	NN
homer-odyssey-850_16	161	57	when	when	WRB
homer-odyssey-850_16	161	58	I	-PRON-	PRP
homer-odyssey-850_16	161	59	saw	see	VBD
homer-odyssey-850_16	161	60	a	a	DT
homer-odyssey-850_16	161	61	ship	ship	NN
homer-odyssey-850_16	161	62	coming	come	VBG
homer-odyssey-850_16	161	63	into	into	IN
homer-odyssey-850_16	161	64	harbour	harbour	NN
homer-odyssey-850_16	161	65	with	with	IN
homer-odyssey-850_16	161	66	a	a	DT
homer-odyssey-850_16	161	67	number	number	NN
homer-odyssey-850_16	161	68	of	of	IN
homer-odyssey-850_16	161	69	men	man	NNS
homer-odyssey-850_16	161	70	in	in	IN
homer-odyssey-850_16	161	71	her	-PRON-	PRP
homer-odyssey-850_16	161	72	.	.	.
homer-odyssey-850_16	162	1	They	-PRON-	PRP
homer-odyssey-850_16	162	2	had	have	VBD
homer-odyssey-850_16	162	3	many	many	JJ
homer-odyssey-850_16	162	4	shields	shield	NNS
homer-odyssey-850_16	162	5	and	and	CC
homer-odyssey-850_16	162	6	spears	spear	NNS
homer-odyssey-850_16	162	7	,	,	,
homer-odyssey-850_16	162	8	and	and	CC
homer-odyssey-850_16	162	9	I	-PRON-	PRP
homer-odyssey-850_16	162	10	thought	think	VBD
homer-odyssey-850_16	162	11	it	-PRON-	PRP
homer-odyssey-850_16	162	12	was	be	VBD
homer-odyssey-850_16	162	13	the	the	DT
homer-odyssey-850_16	162	14	suitors	suitor	NNS
homer-odyssey-850_16	162	15	,	,	,
homer-odyssey-850_16	162	16	but	but	CC
homer-odyssey-850_16	162	17	I	-PRON-	PRP
homer-odyssey-850_16	162	18	can	can	MD
homer-odyssey-850_16	162	19	not	not	RB
homer-odyssey-850_16	162	20	be	be	VB
homer-odyssey-850_16	162	21	sure	sure	JJ
homer-odyssey-850_16	162	22	.	.	.
homer-odyssey-850_16	162	23	"	"	''
homer-odyssey-850_16	163	1	On	on	IN
homer-odyssey-850_16	163	2	hearing	hear	VBG
homer-odyssey-850_16	163	3	this	this	DT
homer-odyssey-850_16	163	4	Telemachus	telemachus	NNP
homer-odyssey-850_16	163	5	smiled	smile	VBD
homer-odyssey-850_16	163	6	to	to	IN
homer-odyssey-850_16	163	7	his	-PRON-	PRP$
homer-odyssey-850_16	163	8	father	father	NN
homer-odyssey-850_16	163	9	,	,	,
homer-odyssey-850_16	163	10	but	but	CC
homer-odyssey-850_16	163	11	so	so	IN
homer-odyssey-850_16	163	12	that	that	IN
homer-odyssey-850_16	163	13	Eumaeus	eumaeus	NNP
homer-odyssey-850_16	163	14	could	could	MD
homer-odyssey-850_16	163	15	not	not	RB
homer-odyssey-850_16	163	16	see	see	VB
homer-odyssey-850_16	163	17	him	-PRON-	PRP
homer-odyssey-850_16	163	18	.	.	.
homer-odyssey-850_16	164	1	Then	then	RB
homer-odyssey-850_16	164	2	,	,	,
homer-odyssey-850_16	164	3	when	when	WRB
homer-odyssey-850_16	164	4	they	-PRON-	PRP
homer-odyssey-850_16	164	5	had	have	VBD
homer-odyssey-850_16	164	6	finished	finish	VBN
homer-odyssey-850_16	164	7	their	-PRON-	PRP$
homer-odyssey-850_16	164	8	work	work	NN
homer-odyssey-850_16	164	9	and	and	CC
homer-odyssey-850_16	164	10	the	the	DT
homer-odyssey-850_16	164	11	meal	meal	NN
homer-odyssey-850_16	164	12	was	be	VBD
homer-odyssey-850_16	164	13	ready	ready	JJ
homer-odyssey-850_16	164	14	,	,	,
homer-odyssey-850_16	164	15	they	-PRON-	PRP
homer-odyssey-850_16	164	16	ate	eat	VBD
homer-odyssey-850_16	164	17	it	-PRON-	PRP
homer-odyssey-850_16	164	18	,	,	,
homer-odyssey-850_16	164	19	and	and	CC
homer-odyssey-850_16	164	20	every	every	DT
homer-odyssey-850_16	164	21	man	man	NN
homer-odyssey-850_16	164	22	had	have	VBD
homer-odyssey-850_16	164	23	his	-PRON-	PRP$
homer-odyssey-850_16	164	24	full	full	JJ
homer-odyssey-850_16	164	25	share	share	NN
homer-odyssey-850_16	164	26	so	so	IN
homer-odyssey-850_16	164	27	that	that	IN
homer-odyssey-850_16	164	28	all	all	DT
homer-odyssey-850_16	164	29	were	be	VBD
homer-odyssey-850_16	164	30	satisfied	satisfied	JJ
homer-odyssey-850_16	164	31	.	.	.
homer-odyssey-850_16	165	1	As	as	RB
homer-odyssey-850_16	165	2	soon	soon	RB
homer-odyssey-850_16	165	3	as	as	IN
homer-odyssey-850_16	165	4	they	-PRON-	PRP
homer-odyssey-850_16	165	5	had	have	VBD
homer-odyssey-850_16	165	6	had	have	VBN
homer-odyssey-850_16	165	7	enough	enough	JJ
homer-odyssey-850_16	165	8	to	to	TO
homer-odyssey-850_16	165	9	eat	eat	VB
homer-odyssey-850_16	165	10	and	and	CC
homer-odyssey-850_16	165	11	drink	drink	VB
homer-odyssey-850_16	165	12	,	,	,
homer-odyssey-850_16	165	13	they	-PRON-	PRP
homer-odyssey-850_16	165	14	laid	lay	VBD
homer-odyssey-850_16	165	15	down	down	RP
homer-odyssey-850_16	165	16	to	to	IN
homer-odyssey-850_16	165	17	rest	rest	NN
homer-odyssey-850_16	165	18	and	and	CC
homer-odyssey-850_16	165	19	enjoyed	enjoy	VBD
homer-odyssey-850_16	165	20	the	the	DT
homer-odyssey-850_16	165	21	boon	boon	NN
homer-odyssey-850_16	165	22	of	of	IN
homer-odyssey-850_16	165	23	sleep	sleep	NN
homer-odyssey-850_16	165	24	.	.	.
