id	sid	tid	token	lemma	pos
homer-odyssey-850_01	1	1	THE	the	DT
homer-odyssey-850_01	1	2	GODS	god	NNS
homer-odyssey-850_01	1	3	IN	in	IN
homer-odyssey-850_01	1	4	COUNCIL	council	NNP
homer-odyssey-850_01	1	5	--	--	:
homer-odyssey-850_01	1	6	MINERVA	minerva	NNP
homer-odyssey-850_01	1	7	'S	's	POS
homer-odyssey-850_01	1	8	VISIT	visit	NN
homer-odyssey-850_01	1	9	TO	to	IN
homer-odyssey-850_01	1	10	ITHACA	ithaca	NNP
homer-odyssey-850_01	1	11	--	--	:
homer-odyssey-850_01	1	12	THE	the	DT
homer-odyssey-850_01	1	13	CHALLENGE	challenge	NNS
homer-odyssey-850_01	1	14	FROM	from	IN
homer-odyssey-850_01	1	15	TELEMACHUS	telemachus	NN
homer-odyssey-850_01	1	16	TO	to	IN
homer-odyssey-850_01	1	17	THE	the	DT
homer-odyssey-850_01	1	18	SUITORS	suitors	NNP
homer-odyssey-850_01	1	19	.	.	.
homer-odyssey-850_01	2	1	Tell	tell	VB
homer-odyssey-850_01	2	2	me	-PRON-	PRP
homer-odyssey-850_01	2	3	,	,	,
homer-odyssey-850_01	2	4	O	o	UH
homer-odyssey-850_01	2	5	Muse	muse	NNP
homer-odyssey-850_01	2	6	,	,	,
homer-odyssey-850_01	2	7	of	of	IN
homer-odyssey-850_01	2	8	that	that	DT
homer-odyssey-850_01	2	9	ingenious	ingenious	JJ
homer-odyssey-850_01	2	10	hero	hero	NN
homer-odyssey-850_01	2	11	who	who	WP
homer-odyssey-850_01	2	12	travelled	travel	VBD
homer-odyssey-850_01	2	13	far	far	RB
homer-odyssey-850_01	2	14	and	and	CC
homer-odyssey-850_01	2	15	wide	wide	RB
homer-odyssey-850_01	2	16	after	after	IN
homer-odyssey-850_01	2	17	he	-PRON-	PRP
homer-odyssey-850_01	2	18	had	have	VBD
homer-odyssey-850_01	2	19	sacked	sack	VBN
homer-odyssey-850_01	2	20	the	the	DT
homer-odyssey-850_01	2	21	famous	famous	JJ
homer-odyssey-850_01	2	22	town	town	NN
homer-odyssey-850_01	2	23	of	of	IN
homer-odyssey-850_01	2	24	Troy	troy	NNP
homer-odyssey-850_01	2	25	.	.	.
homer-odyssey-850_01	3	1	Many	many	JJ
homer-odyssey-850_01	3	2	cities	city	NNS
homer-odyssey-850_01	3	3	did	do	VBD
homer-odyssey-850_01	3	4	he	-PRON-	PRP
homer-odyssey-850_01	3	5	visit	visit	VB
homer-odyssey-850_01	3	6	,	,	,
homer-odyssey-850_01	3	7	and	and	CC
homer-odyssey-850_01	3	8	many	many	JJ
homer-odyssey-850_01	3	9	were	be	VBD
homer-odyssey-850_01	3	10	the	the	DT
homer-odyssey-850_01	3	11	nations	nation	NNS
homer-odyssey-850_01	3	12	with	with	IN
homer-odyssey-850_01	3	13	whose	whose	WP$
homer-odyssey-850_01	3	14	manners	manner	NNS
homer-odyssey-850_01	3	15	and	and	CC
homer-odyssey-850_01	3	16	customs	custom	NNS
homer-odyssey-850_01	3	17	he	-PRON-	PRP
homer-odyssey-850_01	3	18	was	be	VBD
homer-odyssey-850_01	3	19	acquainted	acquaint	VBN
homer-odyssey-850_01	3	20	;	;	:
homer-odyssey-850_01	3	21	moreover	moreover	RB
homer-odyssey-850_01	3	22	he	-PRON-	PRP
homer-odyssey-850_01	3	23	suffered	suffer	VBD
homer-odyssey-850_01	3	24	much	much	RB
homer-odyssey-850_01	3	25	by	by	IN
homer-odyssey-850_01	3	26	sea	sea	NN
homer-odyssey-850_01	3	27	while	while	IN
homer-odyssey-850_01	3	28	trying	try	VBG
homer-odyssey-850_01	3	29	to	to	TO
homer-odyssey-850_01	3	30	save	save	VB
homer-odyssey-850_01	3	31	his	-PRON-	PRP$
homer-odyssey-850_01	3	32	own	own	JJ
homer-odyssey-850_01	3	33	life	life	NN
homer-odyssey-850_01	3	34	and	and	CC
homer-odyssey-850_01	3	35	bring	bring	VB
homer-odyssey-850_01	3	36	his	-PRON-	PRP$
homer-odyssey-850_01	3	37	men	man	NNS
homer-odyssey-850_01	3	38	safely	safely	RB
homer-odyssey-850_01	3	39	home	home	RB
homer-odyssey-850_01	3	40	;	;	:
homer-odyssey-850_01	3	41	but	but	CC
homer-odyssey-850_01	3	42	do	do	VB
homer-odyssey-850_01	3	43	what	what	WP
homer-odyssey-850_01	3	44	he	-PRON-	PRP
homer-odyssey-850_01	3	45	might	may	MD
homer-odyssey-850_01	3	46	he	-PRON-	PRP
homer-odyssey-850_01	3	47	could	could	MD
homer-odyssey-850_01	3	48	not	not	RB
homer-odyssey-850_01	3	49	save	save	VB
homer-odyssey-850_01	3	50	his	-PRON-	PRP$
homer-odyssey-850_01	3	51	men	man	NNS
homer-odyssey-850_01	3	52	,	,	,
homer-odyssey-850_01	3	53	for	for	IN
homer-odyssey-850_01	3	54	they	-PRON-	PRP
homer-odyssey-850_01	3	55	perished	perish	VBD
homer-odyssey-850_01	3	56	through	through	IN
homer-odyssey-850_01	3	57	their	-PRON-	PRP$
homer-odyssey-850_01	3	58	own	own	JJ
homer-odyssey-850_01	3	59	sheer	sheer	JJ
homer-odyssey-850_01	3	60	folly	folly	NN
homer-odyssey-850_01	3	61	in	in	IN
homer-odyssey-850_01	3	62	eating	eat	VBG
homer-odyssey-850_01	3	63	the	the	DT
homer-odyssey-850_01	3	64	cattle	cattle	NNS
homer-odyssey-850_01	3	65	of	of	IN
homer-odyssey-850_01	3	66	the	the	DT
homer-odyssey-850_01	3	67	Sun-	sun-	NNPS
homer-odyssey-850_01	3	68	god	god	UH
homer-odyssey-850_01	3	69	Hyperion	hyperion	NN
homer-odyssey-850_01	3	70	;	;	:
homer-odyssey-850_01	3	71	so	so	CC
homer-odyssey-850_01	3	72	the	the	DT
homer-odyssey-850_01	3	73	god	god	NN
homer-odyssey-850_01	3	74	prevented	prevent	VBD
homer-odyssey-850_01	3	75	them	-PRON-	PRP
homer-odyssey-850_01	3	76	from	from	IN
homer-odyssey-850_01	3	77	ever	ever	RB
homer-odyssey-850_01	3	78	reaching	reach	VBG
homer-odyssey-850_01	3	79	home	home	NN
homer-odyssey-850_01	3	80	.	.	.
homer-odyssey-850_01	4	1	Tell	tell	VB
homer-odyssey-850_01	4	2	me	-PRON-	PRP
homer-odyssey-850_01	4	3	,	,	,
homer-odyssey-850_01	4	4	too	too	RB
homer-odyssey-850_01	4	5	,	,	,
homer-odyssey-850_01	4	6	about	about	IN
homer-odyssey-850_01	4	7	all	all	PDT
homer-odyssey-850_01	4	8	these	these	DT
homer-odyssey-850_01	4	9	things	thing	NNS
homer-odyssey-850_01	4	10	,	,	,
homer-odyssey-850_01	4	11	oh	oh	UH
homer-odyssey-850_01	4	12	daughter	daughter	NN
homer-odyssey-850_01	4	13	of	of	IN
homer-odyssey-850_01	4	14	Jove	jove	NNP
homer-odyssey-850_01	4	15	,	,	,
homer-odyssey-850_01	4	16	from	from	IN
homer-odyssey-850_01	4	17	whatsoever	whatsoever	RB
homer-odyssey-850_01	4	18	source	source	NN
homer-odyssey-850_01	4	19	you	-PRON-	PRP
homer-odyssey-850_01	4	20	may	may	MD
homer-odyssey-850_01	4	21	know	know	VB
homer-odyssey-850_01	4	22	them	-PRON-	PRP
homer-odyssey-850_01	4	23	.	.	.
homer-odyssey-850_01	5	1	So	so	RB
homer-odyssey-850_01	5	2	now	now	RB
homer-odyssey-850_01	5	3	all	all	DT
homer-odyssey-850_01	5	4	who	who	WP
homer-odyssey-850_01	5	5	escaped	escape	VBD
homer-odyssey-850_01	5	6	death	death	NN
homer-odyssey-850_01	5	7	in	in	IN
homer-odyssey-850_01	5	8	battle	battle	NN
homer-odyssey-850_01	5	9	or	or	CC
homer-odyssey-850_01	5	10	by	by	IN
homer-odyssey-850_01	5	11	shipwreck	shipwreck	NN
homer-odyssey-850_01	5	12	had	have	VBD
homer-odyssey-850_01	5	13	got	get	VBN
homer-odyssey-850_01	5	14	safely	safely	RB
homer-odyssey-850_01	5	15	home	home	RB
homer-odyssey-850_01	5	16	except	except	IN
homer-odyssey-850_01	5	17	Ulysses	ulyss	NNS
homer-odyssey-850_01	5	18	,	,	,
homer-odyssey-850_01	5	19	and	and	CC
homer-odyssey-850_01	5	20	he	-PRON-	PRP
homer-odyssey-850_01	5	21	,	,	,
homer-odyssey-850_01	5	22	though	though	IN
homer-odyssey-850_01	5	23	he	-PRON-	PRP
homer-odyssey-850_01	5	24	was	be	VBD
homer-odyssey-850_01	5	25	longing	long	VBG
homer-odyssey-850_01	5	26	to	to	TO
homer-odyssey-850_01	5	27	return	return	VB
homer-odyssey-850_01	5	28	to	to	IN
homer-odyssey-850_01	5	29	his	-PRON-	PRP$
homer-odyssey-850_01	5	30	wife	wife	NN
homer-odyssey-850_01	5	31	and	and	CC
homer-odyssey-850_01	5	32	country	country	NN
homer-odyssey-850_01	5	33	,	,	,
homer-odyssey-850_01	5	34	was	be	VBD
homer-odyssey-850_01	5	35	detained	detain	VBN
homer-odyssey-850_01	5	36	by	by	IN
homer-odyssey-850_01	5	37	the	the	DT
homer-odyssey-850_01	5	38	goddess	goddess	NN
homer-odyssey-850_01	5	39	Calypso	calypso	NNP
homer-odyssey-850_01	5	40	,	,	,
homer-odyssey-850_01	5	41	who	who	WP
homer-odyssey-850_01	5	42	had	have	VBD
homer-odyssey-850_01	5	43	got	get	VBN
homer-odyssey-850_01	5	44	him	-PRON-	PRP
homer-odyssey-850_01	5	45	into	into	IN
homer-odyssey-850_01	5	46	a	a	DT
homer-odyssey-850_01	5	47	large	large	JJ
homer-odyssey-850_01	5	48	cave	cave	NN
homer-odyssey-850_01	5	49	and	and	CC
homer-odyssey-850_01	5	50	wanted	want	VBD
homer-odyssey-850_01	5	51	to	to	TO
homer-odyssey-850_01	5	52	marry	marry	VB
homer-odyssey-850_01	5	53	him	-PRON-	PRP
homer-odyssey-850_01	5	54	.	.	.
homer-odyssey-850_01	6	1	But	but	CC
homer-odyssey-850_01	6	2	as	as	IN
homer-odyssey-850_01	6	3	years	year	NNS
homer-odyssey-850_01	6	4	went	go	VBD
homer-odyssey-850_01	6	5	by	by	RB
homer-odyssey-850_01	6	6	,	,	,
homer-odyssey-850_01	6	7	there	there	EX
homer-odyssey-850_01	6	8	came	come	VBD
homer-odyssey-850_01	6	9	a	a	DT
homer-odyssey-850_01	6	10	time	time	NN
homer-odyssey-850_01	6	11	when	when	WRB
homer-odyssey-850_01	6	12	the	the	DT
homer-odyssey-850_01	6	13	gods	god	NNS
homer-odyssey-850_01	6	14	settled	settle	VBD
homer-odyssey-850_01	6	15	that	that	IN
homer-odyssey-850_01	6	16	he	-PRON-	PRP
homer-odyssey-850_01	6	17	should	should	MD
homer-odyssey-850_01	6	18	go	go	VB
homer-odyssey-850_01	6	19	back	back	RB
homer-odyssey-850_01	6	20	to	to	IN
homer-odyssey-850_01	6	21	Ithaca	ithaca	NNP
homer-odyssey-850_01	6	22	;	;	:
homer-odyssey-850_01	6	23	even	even	RB
homer-odyssey-850_01	6	24	then	then	RB
homer-odyssey-850_01	6	25	,	,	,
homer-odyssey-850_01	6	26	however	however	RB
homer-odyssey-850_01	6	27	,	,	,
homer-odyssey-850_01	6	28	when	when	WRB
homer-odyssey-850_01	6	29	he	-PRON-	PRP
homer-odyssey-850_01	6	30	was	be	VBD
homer-odyssey-850_01	6	31	among	among	IN
homer-odyssey-850_01	6	32	his	-PRON-	PRP$
homer-odyssey-850_01	6	33	own	own	JJ
homer-odyssey-850_01	6	34	people	people	NNS
homer-odyssey-850_01	6	35	,	,	,
homer-odyssey-850_01	6	36	his	-PRON-	PRP$
homer-odyssey-850_01	6	37	troubles	trouble	NNS
homer-odyssey-850_01	6	38	were	be	VBD
homer-odyssey-850_01	6	39	not	not	RB
homer-odyssey-850_01	6	40	yet	yet	RB
homer-odyssey-850_01	6	41	over	over	RB
homer-odyssey-850_01	6	42	;	;	:
homer-odyssey-850_01	6	43	nevertheless	nevertheless	RB
homer-odyssey-850_01	6	44	all	all	PDT
homer-odyssey-850_01	6	45	the	the	DT
homer-odyssey-850_01	6	46	gods	god	NNS
homer-odyssey-850_01	6	47	had	have	VBD
homer-odyssey-850_01	6	48	now	now	RB
homer-odyssey-850_01	6	49	begun	begin	VBN
homer-odyssey-850_01	6	50	to	to	TO
homer-odyssey-850_01	6	51	pity	pity	VB
homer-odyssey-850_01	6	52	him	-PRON-	PRP
homer-odyssey-850_01	6	53	except	except	IN
homer-odyssey-850_01	6	54	Neptune	neptune	NNP
homer-odyssey-850_01	6	55	,	,	,
homer-odyssey-850_01	6	56	who	who	WP
homer-odyssey-850_01	6	57	still	still	RB
homer-odyssey-850_01	6	58	persecuted	persecute	VBD
homer-odyssey-850_01	6	59	him	-PRON-	PRP
homer-odyssey-850_01	6	60	without	without	IN
homer-odyssey-850_01	6	61	ceasing	cease	VBG
homer-odyssey-850_01	6	62	and	and	CC
homer-odyssey-850_01	6	63	would	would	MD
homer-odyssey-850_01	6	64	not	not	RB
homer-odyssey-850_01	6	65	let	let	VB
homer-odyssey-850_01	6	66	him	-PRON-	PRP
homer-odyssey-850_01	6	67	get	get	VB
homer-odyssey-850_01	6	68	home	home	RB
homer-odyssey-850_01	6	69	.	.	.
homer-odyssey-850_01	7	1	Now	now	RB
homer-odyssey-850_01	7	2	Neptune	neptune	NNP
homer-odyssey-850_01	7	3	had	have	VBD
homer-odyssey-850_01	7	4	gone	go	VBN
homer-odyssey-850_01	7	5	off	off	RP
homer-odyssey-850_01	7	6	to	to	IN
homer-odyssey-850_01	7	7	the	the	DT
homer-odyssey-850_01	7	8	Ethiopians	ethiopians	NNPS
homer-odyssey-850_01	7	9	,	,	,
homer-odyssey-850_01	7	10	who	who	WP
homer-odyssey-850_01	7	11	are	be	VBP
homer-odyssey-850_01	7	12	at	at	IN
homer-odyssey-850_01	7	13	the	the	DT
homer-odyssey-850_01	7	14	world	world	NN
homer-odyssey-850_01	7	15	's	's	POS
homer-odyssey-850_01	7	16	end	end	NN
homer-odyssey-850_01	7	17	,	,	,
homer-odyssey-850_01	7	18	and	and	CC
homer-odyssey-850_01	7	19	lie	lie	VB
homer-odyssey-850_01	7	20	in	in	IN
homer-odyssey-850_01	7	21	two	two	CD
homer-odyssey-850_01	7	22	halves	half	NNS
homer-odyssey-850_01	7	23	,	,	,
homer-odyssey-850_01	7	24	the	the	DT
homer-odyssey-850_01	7	25	one	one	CD
homer-odyssey-850_01	7	26	looking	look	VBG
homer-odyssey-850_01	7	27	West	west	NNP
homer-odyssey-850_01	7	28	and	and	CC
homer-odyssey-850_01	7	29	the	the	DT
homer-odyssey-850_01	7	30	other	other	JJ
homer-odyssey-850_01	7	31	East	east	NNP
homer-odyssey-850_01	7	32	.	.	.
homer-odyssey-850_01	8	1	{	{	-LRB-
homer-odyssey-850_01	8	2	1	1	LS
homer-odyssey-850_01	8	3	}	}	-RRB-
homer-odyssey-850_01	8	4	He	-PRON-	PRP
homer-odyssey-850_01	8	5	had	have	VBD
homer-odyssey-850_01	8	6	gone	go	VBN
homer-odyssey-850_01	8	7	there	there	RB
homer-odyssey-850_01	8	8	to	to	TO
homer-odyssey-850_01	8	9	accept	accept	VB
homer-odyssey-850_01	8	10	a	a	DT
homer-odyssey-850_01	8	11	hecatomb	hecatomb	NN
homer-odyssey-850_01	8	12	of	of	IN
homer-odyssey-850_01	8	13	sheep	sheep	NNS
homer-odyssey-850_01	8	14	and	and	CC
homer-odyssey-850_01	8	15	oxen	oxen	NN
homer-odyssey-850_01	8	16	,	,	,
homer-odyssey-850_01	8	17	and	and	CC
homer-odyssey-850_01	8	18	was	be	VBD
homer-odyssey-850_01	8	19	enjoying	enjoy	VBG
homer-odyssey-850_01	8	20	himself	-PRON-	PRP
homer-odyssey-850_01	8	21	at	at	IN
homer-odyssey-850_01	8	22	his	-PRON-	PRP$
homer-odyssey-850_01	8	23	festival	festival	NN
homer-odyssey-850_01	8	24	;	;	:
homer-odyssey-850_01	8	25	but	but	CC
homer-odyssey-850_01	8	26	the	the	DT
homer-odyssey-850_01	8	27	other	other	JJ
homer-odyssey-850_01	8	28	gods	god	NNS
homer-odyssey-850_01	8	29	met	meet	VBD
homer-odyssey-850_01	8	30	in	in	IN
homer-odyssey-850_01	8	31	the	the	DT
homer-odyssey-850_01	8	32	house	house	NN
homer-odyssey-850_01	8	33	of	of	IN
homer-odyssey-850_01	8	34	Olympian	olympian	NNP
homer-odyssey-850_01	8	35	Jove	jove	NNP
homer-odyssey-850_01	8	36	,	,	,
homer-odyssey-850_01	8	37	and	and	CC
homer-odyssey-850_01	8	38	the	the	DT
homer-odyssey-850_01	8	39	sire	sire	NN
homer-odyssey-850_01	8	40	of	of	IN
homer-odyssey-850_01	8	41	gods	god	NNS
homer-odyssey-850_01	8	42	and	and	CC
homer-odyssey-850_01	8	43	men	man	NNS
homer-odyssey-850_01	8	44	spoke	speak	VBD
homer-odyssey-850_01	8	45	first	first	RB
homer-odyssey-850_01	8	46	.	.	.
homer-odyssey-850_01	9	1	At	at	IN
homer-odyssey-850_01	9	2	that	that	DT
homer-odyssey-850_01	9	3	moment	moment	NN
homer-odyssey-850_01	9	4	he	-PRON-	PRP
homer-odyssey-850_01	9	5	was	be	VBD
homer-odyssey-850_01	9	6	thinking	think	VBG
homer-odyssey-850_01	9	7	of	of	IN
homer-odyssey-850_01	9	8	Aegisthus	aegisthus	NNP
homer-odyssey-850_01	9	9	,	,	,
homer-odyssey-850_01	9	10	who	who	WP
homer-odyssey-850_01	9	11	had	have	VBD
homer-odyssey-850_01	9	12	been	be	VBN
homer-odyssey-850_01	9	13	killed	kill	VBN
homer-odyssey-850_01	9	14	by	by	IN
homer-odyssey-850_01	9	15	Agamemnon	agamemnon	NNP
homer-odyssey-850_01	9	16	's	's	POS
homer-odyssey-850_01	9	17	son	son	NN
homer-odyssey-850_01	9	18	Orestes	orestes	NNPS
homer-odyssey-850_01	9	19	;	;	:
homer-odyssey-850_01	9	20	so	so	RB
homer-odyssey-850_01	9	21	he	-PRON-	PRP
homer-odyssey-850_01	9	22	said	say	VBD
homer-odyssey-850_01	9	23	to	to	IN
homer-odyssey-850_01	9	24	the	the	DT
homer-odyssey-850_01	9	25	other	other	JJ
homer-odyssey-850_01	9	26	gods	god	NNS
homer-odyssey-850_01	9	27	:	:	:
homer-odyssey-850_01	9	28	"	"	``
homer-odyssey-850_01	9	29	See	see	VB
homer-odyssey-850_01	9	30	now	now	RB
homer-odyssey-850_01	9	31	,	,	,
homer-odyssey-850_01	9	32	how	how	WRB
homer-odyssey-850_01	9	33	men	man	NNS
homer-odyssey-850_01	9	34	lay	lie	VBD
homer-odyssey-850_01	9	35	blame	blame	NN
homer-odyssey-850_01	9	36	upon	upon	IN
homer-odyssey-850_01	9	37	us	-PRON-	PRP
homer-odyssey-850_01	9	38	gods	god	NNS
homer-odyssey-850_01	9	39	for	for	IN
homer-odyssey-850_01	9	40	what	what	WP
homer-odyssey-850_01	9	41	is	be	VBZ
homer-odyssey-850_01	9	42	after	after	RB
homer-odyssey-850_01	9	43	all	all	DT
homer-odyssey-850_01	9	44	nothing	nothing	NN
homer-odyssey-850_01	9	45	but	but	IN
homer-odyssey-850_01	9	46	their	-PRON-	PRP$
homer-odyssey-850_01	9	47	own	own	JJ
homer-odyssey-850_01	9	48	folly	folly	NN
homer-odyssey-850_01	9	49	.	.	.
homer-odyssey-850_01	10	1	Look	look	VB
homer-odyssey-850_01	10	2	at	at	IN
homer-odyssey-850_01	10	3	Aegisthus	aegisthus	NNP
homer-odyssey-850_01	10	4	;	;	:
homer-odyssey-850_01	10	5	he	-PRON-	PRP
homer-odyssey-850_01	10	6	must	must	MD
homer-odyssey-850_01	10	7	needs	need	NNS
homer-odyssey-850_01	10	8	make	make	VB
homer-odyssey-850_01	10	9	love	love	NN
homer-odyssey-850_01	10	10	to	to	IN
homer-odyssey-850_01	10	11	Agamemnon	agamemnon	NNP
homer-odyssey-850_01	10	12	's	's	POS
homer-odyssey-850_01	10	13	wife	wife	NN
homer-odyssey-850_01	10	14	unrighteously	unrighteously	RB
homer-odyssey-850_01	10	15	and	and	CC
homer-odyssey-850_01	10	16	then	then	RB
homer-odyssey-850_01	10	17	kill	kill	VB
homer-odyssey-850_01	10	18	Agamemnon	agamemnon	NNP
homer-odyssey-850_01	10	19	,	,	,
homer-odyssey-850_01	10	20	though	though	IN
homer-odyssey-850_01	10	21	he	-PRON-	PRP
homer-odyssey-850_01	10	22	knew	know	VBD
homer-odyssey-850_01	10	23	it	-PRON-	PRP
homer-odyssey-850_01	10	24	would	would	MD
homer-odyssey-850_01	10	25	be	be	VB
homer-odyssey-850_01	10	26	the	the	DT
homer-odyssey-850_01	10	27	death	death	NN
homer-odyssey-850_01	10	28	of	of	IN
homer-odyssey-850_01	10	29	him	-PRON-	PRP
homer-odyssey-850_01	10	30	;	;	:
homer-odyssey-850_01	10	31	for	for	IN
homer-odyssey-850_01	10	32	I	-PRON-	PRP
homer-odyssey-850_01	10	33	sent	send	VBD
homer-odyssey-850_01	10	34	Mercury	mercury	NNP
homer-odyssey-850_01	10	35	to	to	TO
homer-odyssey-850_01	10	36	warn	warn	VB
homer-odyssey-850_01	10	37	him	-PRON-	PRP
homer-odyssey-850_01	10	38	not	not	RB
homer-odyssey-850_01	10	39	to	to	TO
homer-odyssey-850_01	10	40	do	do	VB
homer-odyssey-850_01	10	41	either	either	DT
homer-odyssey-850_01	10	42	of	of	IN
homer-odyssey-850_01	10	43	these	these	DT
homer-odyssey-850_01	10	44	things	thing	NNS
homer-odyssey-850_01	10	45	,	,	,
homer-odyssey-850_01	10	46	inasmuch	inasmuch	IN
homer-odyssey-850_01	10	47	as	as	IN
homer-odyssey-850_01	10	48	Orestes	oreste	NNS
homer-odyssey-850_01	10	49	would	would	MD
homer-odyssey-850_01	10	50	be	be	VB
homer-odyssey-850_01	10	51	sure	sure	JJ
homer-odyssey-850_01	10	52	to	to	TO
homer-odyssey-850_01	10	53	take	take	VB
homer-odyssey-850_01	10	54	his	-PRON-	PRP$
homer-odyssey-850_01	10	55	revenge	revenge	NN
homer-odyssey-850_01	10	56	when	when	WRB
homer-odyssey-850_01	10	57	he	-PRON-	PRP
homer-odyssey-850_01	10	58	grew	grow	VBD
homer-odyssey-850_01	10	59	up	up	RP
homer-odyssey-850_01	10	60	and	and	CC
homer-odyssey-850_01	10	61	wanted	want	VBD
homer-odyssey-850_01	10	62	to	to	TO
homer-odyssey-850_01	10	63	return	return	VB
homer-odyssey-850_01	10	64	home	home	RB
homer-odyssey-850_01	10	65	.	.	.
homer-odyssey-850_01	11	1	Mercury	mercury	NNP
homer-odyssey-850_01	11	2	told	tell	VBD
homer-odyssey-850_01	11	3	him	-PRON-	PRP
homer-odyssey-850_01	11	4	this	this	DT
homer-odyssey-850_01	11	5	in	in	IN
homer-odyssey-850_01	11	6	all	all	DT
homer-odyssey-850_01	11	7	good	good	JJ
homer-odyssey-850_01	11	8	will	will	NN
homer-odyssey-850_01	11	9	but	but	CC
homer-odyssey-850_01	11	10	he	-PRON-	PRP
homer-odyssey-850_01	11	11	would	would	MD
homer-odyssey-850_01	11	12	not	not	RB
homer-odyssey-850_01	11	13	listen	listen	VB
homer-odyssey-850_01	11	14	,	,	,
homer-odyssey-850_01	11	15	and	and	CC
homer-odyssey-850_01	11	16	now	now	RB
homer-odyssey-850_01	11	17	he	-PRON-	PRP
homer-odyssey-850_01	11	18	has	have	VBZ
homer-odyssey-850_01	11	19	paid	pay	VBN
homer-odyssey-850_01	11	20	for	for	IN
homer-odyssey-850_01	11	21	everything	everything	NN
homer-odyssey-850_01	11	22	in	in	IN
homer-odyssey-850_01	11	23	full	full	JJ
homer-odyssey-850_01	11	24	.	.	.
homer-odyssey-850_01	11	25	"	"	''
homer-odyssey-850_01	12	1	Then	then	RB
homer-odyssey-850_01	12	2	Minerva	minerva	NNP
homer-odyssey-850_01	12	3	said	say	VBD
homer-odyssey-850_01	12	4	,	,	,
homer-odyssey-850_01	12	5	"	"	``
homer-odyssey-850_01	12	6	Father	father	NNP
homer-odyssey-850_01	12	7	,	,	,
homer-odyssey-850_01	12	8	son	son	NN
homer-odyssey-850_01	12	9	of	of	IN
homer-odyssey-850_01	12	10	Saturn	saturn	NNP
homer-odyssey-850_01	12	11	,	,	,
homer-odyssey-850_01	12	12	King	king	NNP
homer-odyssey-850_01	12	13	of	of	IN
homer-odyssey-850_01	12	14	kings	king	NNS
homer-odyssey-850_01	12	15	,	,	,
homer-odyssey-850_01	12	16	it	-PRON-	PRP
homer-odyssey-850_01	12	17	served	serve	VBD
homer-odyssey-850_01	12	18	Aegisthus	aegisthus	JJ
homer-odyssey-850_01	12	19	right	right	UH
homer-odyssey-850_01	12	20	,	,	,
homer-odyssey-850_01	12	21	and	and	CC
homer-odyssey-850_01	12	22	so	so	RB
homer-odyssey-850_01	12	23	it	-PRON-	PRP
homer-odyssey-850_01	12	24	would	would	MD
homer-odyssey-850_01	12	25	any	any	DT
homer-odyssey-850_01	12	26	one	one	NN
homer-odyssey-850_01	12	27	else	else	RB
homer-odyssey-850_01	12	28	who	who	WP
homer-odyssey-850_01	12	29	does	do	VBZ
homer-odyssey-850_01	12	30	as	as	IN
homer-odyssey-850_01	12	31	he	-PRON-	PRP
homer-odyssey-850_01	12	32	did	do	VBD
homer-odyssey-850_01	12	33	;	;	:
homer-odyssey-850_01	12	34	but	but	CC
homer-odyssey-850_01	12	35	Aegisthus	aegisthus	NNP
homer-odyssey-850_01	12	36	is	be	VBZ
homer-odyssey-850_01	12	37	neither	neither	CC
homer-odyssey-850_01	12	38	here	here	RB
homer-odyssey-850_01	12	39	nor	nor	CC
homer-odyssey-850_01	12	40	there	there	RB
homer-odyssey-850_01	12	41	;	;	:
homer-odyssey-850_01	12	42	it	-PRON-	PRP
homer-odyssey-850_01	12	43	is	be	VBZ
homer-odyssey-850_01	12	44	for	for	IN
homer-odyssey-850_01	12	45	Ulysses	ulyss	NNS
homer-odyssey-850_01	12	46	that	that	WDT
homer-odyssey-850_01	12	47	my	-PRON-	PRP$
homer-odyssey-850_01	12	48	heart	heart	NN
homer-odyssey-850_01	12	49	bleeds	bleed	VBZ
homer-odyssey-850_01	12	50	,	,	,
homer-odyssey-850_01	12	51	when	when	WRB
homer-odyssey-850_01	12	52	I	-PRON-	PRP
homer-odyssey-850_01	12	53	think	think	VBP
homer-odyssey-850_01	12	54	of	of	IN
homer-odyssey-850_01	12	55	his	-PRON-	PRP$
homer-odyssey-850_01	12	56	sufferings	suffering	NNS
homer-odyssey-850_01	12	57	in	in	IN
homer-odyssey-850_01	12	58	that	that	DT
homer-odyssey-850_01	12	59	lonely	lonely	JJ
homer-odyssey-850_01	12	60	sea-	sea-	IN
homer-odyssey-850_01	12	61	girt	girt	NN
homer-odyssey-850_01	12	62	island	island	NN
homer-odyssey-850_01	12	63	,	,	,
homer-odyssey-850_01	12	64	far	far	RB
homer-odyssey-850_01	12	65	away	away	RB
homer-odyssey-850_01	12	66	,	,	,
homer-odyssey-850_01	12	67	poor	poor	JJ
homer-odyssey-850_01	12	68	man	man	NN
homer-odyssey-850_01	12	69	,	,	,
homer-odyssey-850_01	12	70	from	from	IN
homer-odyssey-850_01	12	71	all	all	PDT
homer-odyssey-850_01	12	72	his	-PRON-	PRP$
homer-odyssey-850_01	12	73	friends	friend	NNS
homer-odyssey-850_01	12	74	.	.	.
homer-odyssey-850_01	13	1	It	-PRON-	PRP
homer-odyssey-850_01	13	2	is	be	VBZ
homer-odyssey-850_01	13	3	an	an	DT
homer-odyssey-850_01	13	4	island	island	NN
homer-odyssey-850_01	13	5	covered	cover	VBN
homer-odyssey-850_01	13	6	with	with	IN
homer-odyssey-850_01	13	7	forest	forest	NN
homer-odyssey-850_01	13	8	,	,	,
homer-odyssey-850_01	13	9	in	in	IN
homer-odyssey-850_01	13	10	the	the	DT
homer-odyssey-850_01	13	11	very	very	RB
homer-odyssey-850_01	13	12	middle	middle	NN
homer-odyssey-850_01	13	13	of	of	IN
homer-odyssey-850_01	13	14	the	the	DT
homer-odyssey-850_01	13	15	sea	sea	NN
homer-odyssey-850_01	13	16	,	,	,
homer-odyssey-850_01	13	17	and	and	CC
homer-odyssey-850_01	13	18	a	a	DT
homer-odyssey-850_01	13	19	goddess	goddess	NN
homer-odyssey-850_01	13	20	lives	live	VBZ
homer-odyssey-850_01	13	21	there	there	RB
homer-odyssey-850_01	13	22	,	,	,
homer-odyssey-850_01	13	23	daughter	daughter	NN
homer-odyssey-850_01	13	24	of	of	IN
homer-odyssey-850_01	13	25	the	the	DT
homer-odyssey-850_01	13	26	magician	magician	NN
homer-odyssey-850_01	13	27	Atlas	atlas	NNP
homer-odyssey-850_01	13	28	,	,	,
homer-odyssey-850_01	13	29	who	who	WP
homer-odyssey-850_01	13	30	looks	look	VBZ
homer-odyssey-850_01	13	31	after	after	IN
homer-odyssey-850_01	13	32	the	the	DT
homer-odyssey-850_01	13	33	bottom	bottom	NN
homer-odyssey-850_01	13	34	of	of	IN
homer-odyssey-850_01	13	35	the	the	DT
homer-odyssey-850_01	13	36	ocean	ocean	NN
homer-odyssey-850_01	13	37	,	,	,
homer-odyssey-850_01	13	38	and	and	CC
homer-odyssey-850_01	13	39	carries	carry	VBZ
homer-odyssey-850_01	13	40	the	the	DT
homer-odyssey-850_01	13	41	great	great	JJ
homer-odyssey-850_01	13	42	columns	column	NNS
homer-odyssey-850_01	13	43	that	that	WDT
homer-odyssey-850_01	13	44	keep	keep	VBP
homer-odyssey-850_01	13	45	heaven	heaven	NNP
homer-odyssey-850_01	13	46	and	and	CC
homer-odyssey-850_01	13	47	earth	earth	NN
homer-odyssey-850_01	13	48	asunder	asunder	RB
homer-odyssey-850_01	13	49	.	.	.
homer-odyssey-850_01	14	1	This	this	DT
homer-odyssey-850_01	14	2	daughter	daughter	NN
homer-odyssey-850_01	14	3	of	of	IN
homer-odyssey-850_01	14	4	Atlas	atlas	NNP
homer-odyssey-850_01	14	5	has	have	VBZ
homer-odyssey-850_01	14	6	got	get	VBN
homer-odyssey-850_01	14	7	hold	hold	NN
homer-odyssey-850_01	14	8	of	of	IN
homer-odyssey-850_01	14	9	poor	poor	JJ
homer-odyssey-850_01	14	10	unhappy	unhappy	JJ
homer-odyssey-850_01	14	11	Ulysses	ulyss	NNS
homer-odyssey-850_01	14	12	,	,	,
homer-odyssey-850_01	14	13	and	and	CC
homer-odyssey-850_01	14	14	keeps	keep	VBZ
homer-odyssey-850_01	14	15	trying	try	VBG
homer-odyssey-850_01	14	16	by	by	IN
homer-odyssey-850_01	14	17	every	every	DT
homer-odyssey-850_01	14	18	kind	kind	NN
homer-odyssey-850_01	14	19	of	of	IN
homer-odyssey-850_01	14	20	blandishment	blandishment	JJ
homer-odyssey-850_01	14	21	to	to	TO
homer-odyssey-850_01	14	22	make	make	VB
homer-odyssey-850_01	14	23	him	-PRON-	PRP
homer-odyssey-850_01	14	24	forget	forget	VB
homer-odyssey-850_01	14	25	his	-PRON-	PRP$
homer-odyssey-850_01	14	26	home	home	NN
homer-odyssey-850_01	14	27	,	,	,
homer-odyssey-850_01	14	28	so	so	IN
homer-odyssey-850_01	14	29	that	that	IN
homer-odyssey-850_01	14	30	he	-PRON-	PRP
homer-odyssey-850_01	14	31	is	be	VBZ
homer-odyssey-850_01	14	32	tired	tired	JJ
homer-odyssey-850_01	14	33	of	of	IN
homer-odyssey-850_01	14	34	life	life	NN
homer-odyssey-850_01	14	35	,	,	,
homer-odyssey-850_01	14	36	and	and	CC
homer-odyssey-850_01	14	37	thinks	think	VBZ
homer-odyssey-850_01	14	38	of	of	IN
homer-odyssey-850_01	14	39	nothing	nothing	NN
homer-odyssey-850_01	14	40	but	but	IN
homer-odyssey-850_01	14	41	how	how	WRB
homer-odyssey-850_01	14	42	he	-PRON-	PRP
homer-odyssey-850_01	14	43	may	may	MD
homer-odyssey-850_01	14	44	once	once	RB
homer-odyssey-850_01	14	45	more	more	RBR
homer-odyssey-850_01	14	46	see	see	VB
homer-odyssey-850_01	14	47	the	the	DT
homer-odyssey-850_01	14	48	smoke	smoke	NN
homer-odyssey-850_01	14	49	of	of	IN
homer-odyssey-850_01	14	50	his	-PRON-	PRP$
homer-odyssey-850_01	14	51	own	own	JJ
homer-odyssey-850_01	14	52	chimneys	chimney	NNS
homer-odyssey-850_01	14	53	.	.	.
homer-odyssey-850_01	15	1	You	-PRON-	PRP
homer-odyssey-850_01	15	2	,	,	,
homer-odyssey-850_01	15	3	sir	sir	NN
homer-odyssey-850_01	15	4	,	,	,
homer-odyssey-850_01	15	5	take	take	VB
homer-odyssey-850_01	15	6	no	no	DT
homer-odyssey-850_01	15	7	heed	heed	NN
homer-odyssey-850_01	15	8	of	of	IN
homer-odyssey-850_01	15	9	this	this	DT
homer-odyssey-850_01	15	10	,	,	,
homer-odyssey-850_01	15	11	and	and	CC
homer-odyssey-850_01	15	12	yet	yet	RB
homer-odyssey-850_01	15	13	when	when	WRB
homer-odyssey-850_01	15	14	Ulysses	ulyss	NNS
homer-odyssey-850_01	15	15	was	be	VBD
homer-odyssey-850_01	15	16	before	before	IN
homer-odyssey-850_01	15	17	Troy	troy	NNP
homer-odyssey-850_01	15	18	did	do	VBD
homer-odyssey-850_01	15	19	he	-PRON-	PRP
homer-odyssey-850_01	15	20	not	not	RB
homer-odyssey-850_01	15	21	propitiate	propitiate	VB
homer-odyssey-850_01	15	22	you	-PRON-	PRP
homer-odyssey-850_01	15	23	with	with	IN
homer-odyssey-850_01	15	24	many	many	PDT
homer-odyssey-850_01	15	25	a	a	DT
homer-odyssey-850_01	15	26	burnt	burn	VBN
homer-odyssey-850_01	15	27	sacrifice	sacrifice	NN
homer-odyssey-850_01	15	28	?	?	.
homer-odyssey-850_01	16	1	Why	why	WRB
homer-odyssey-850_01	16	2	then	then	RB
homer-odyssey-850_01	16	3	should	should	MD
homer-odyssey-850_01	16	4	you	-PRON-	PRP
homer-odyssey-850_01	16	5	keep	keep	VB
homer-odyssey-850_01	16	6	on	on	RP
homer-odyssey-850_01	16	7	being	be	VBG
homer-odyssey-850_01	16	8	so	so	RB
homer-odyssey-850_01	16	9	angry	angry	JJ
homer-odyssey-850_01	16	10	with	with	IN
homer-odyssey-850_01	16	11	him	-PRON-	PRP
homer-odyssey-850_01	16	12	?	?	.
homer-odyssey-850_01	16	13	"	"	''
homer-odyssey-850_01	17	1	And	and	CC
homer-odyssey-850_01	17	2	Jove	jove	NNP
homer-odyssey-850_01	17	3	said	say	VBD
homer-odyssey-850_01	17	4	,	,	,
homer-odyssey-850_01	17	5	"	"	``
homer-odyssey-850_01	17	6	My	-PRON-	PRP$
homer-odyssey-850_01	17	7	child	child	NN
homer-odyssey-850_01	17	8	,	,	,
homer-odyssey-850_01	17	9	what	what	WP
homer-odyssey-850_01	17	10	are	be	VBP
homer-odyssey-850_01	17	11	you	-PRON-	PRP
homer-odyssey-850_01	17	12	talking	talk	VBG
homer-odyssey-850_01	17	13	about	about	IN
homer-odyssey-850_01	17	14	?	?	.
homer-odyssey-850_01	18	1	How	how	WRB
homer-odyssey-850_01	18	2	can	can	MD
homer-odyssey-850_01	18	3	I	-PRON-	PRP
homer-odyssey-850_01	18	4	forget	forget	VB
homer-odyssey-850_01	18	5	Ulysses	ulyss	NNS
homer-odyssey-850_01	18	6	than	than	IN
homer-odyssey-850_01	18	7	whom	whom	WP
homer-odyssey-850_01	18	8	there	there	EX
homer-odyssey-850_01	18	9	is	be	VBZ
homer-odyssey-850_01	18	10	no	no	DT
homer-odyssey-850_01	18	11	more	more	RBR
homer-odyssey-850_01	18	12	capable	capable	JJ
homer-odyssey-850_01	18	13	man	man	NN
homer-odyssey-850_01	18	14	on	on	IN
homer-odyssey-850_01	18	15	earth	earth	NN
homer-odyssey-850_01	18	16	,	,	,
homer-odyssey-850_01	18	17	nor	nor	CC
homer-odyssey-850_01	18	18	more	more	RBR
homer-odyssey-850_01	18	19	liberal	liberal	JJ
homer-odyssey-850_01	18	20	in	in	IN
homer-odyssey-850_01	18	21	his	-PRON-	PRP$
homer-odyssey-850_01	18	22	offerings	offering	NNS
homer-odyssey-850_01	18	23	to	to	IN
homer-odyssey-850_01	18	24	the	the	DT
homer-odyssey-850_01	18	25	immortal	immortal	JJ
homer-odyssey-850_01	18	26	gods	god	NNS
homer-odyssey-850_01	18	27	that	that	WDT
homer-odyssey-850_01	18	28	live	live	VBP
homer-odyssey-850_01	18	29	in	in	IN
homer-odyssey-850_01	18	30	heaven	heaven	NNP
homer-odyssey-850_01	18	31	?	?	.
homer-odyssey-850_01	19	1	Bear	bear	VB
homer-odyssey-850_01	19	2	in	in	IN
homer-odyssey-850_01	19	3	mind	mind	NN
homer-odyssey-850_01	19	4	,	,	,
homer-odyssey-850_01	19	5	however	however	RB
homer-odyssey-850_01	19	6	,	,	,
homer-odyssey-850_01	19	7	that	that	IN
homer-odyssey-850_01	19	8	Neptune	neptune	NNP
homer-odyssey-850_01	19	9	is	be	VBZ
homer-odyssey-850_01	19	10	still	still	RB
homer-odyssey-850_01	19	11	furious	furious	JJ
homer-odyssey-850_01	19	12	with	with	IN
homer-odyssey-850_01	19	13	Ulysses	ulyss	NNS
homer-odyssey-850_01	19	14	for	for	IN
homer-odyssey-850_01	19	15	having	have	VBG
homer-odyssey-850_01	19	16	blinded	blind	VBN
homer-odyssey-850_01	19	17	an	an	DT
homer-odyssey-850_01	19	18	eye	eye	NN
homer-odyssey-850_01	19	19	of	of	IN
homer-odyssey-850_01	19	20	Polyphemus	polyphemus	NNP
homer-odyssey-850_01	19	21	king	king	NN
homer-odyssey-850_01	19	22	of	of	IN
homer-odyssey-850_01	19	23	the	the	DT
homer-odyssey-850_01	19	24	Cyclopes	cyclopes	NNPS
homer-odyssey-850_01	19	25	.	.	.
homer-odyssey-850_01	20	1	Polyphemus	polyphemus	NNP
homer-odyssey-850_01	20	2	is	be	VBZ
homer-odyssey-850_01	20	3	son	son	NN
homer-odyssey-850_01	20	4	to	to	IN
homer-odyssey-850_01	20	5	Neptune	neptune	NNP
homer-odyssey-850_01	20	6	by	by	IN
homer-odyssey-850_01	20	7	the	the	DT
homer-odyssey-850_01	20	8	nymph	nymph	NN
homer-odyssey-850_01	20	9	Thoosa	thoosa	NNP
homer-odyssey-850_01	20	10	,	,	,
homer-odyssey-850_01	20	11	daughter	daughter	NN
homer-odyssey-850_01	20	12	to	to	IN
homer-odyssey-850_01	20	13	the	the	DT
homer-odyssey-850_01	20	14	sea-	sea-	JJ
homer-odyssey-850_01	20	15	king	king	NN
homer-odyssey-850_01	20	16	Phorcys	phorcys	NNP
homer-odyssey-850_01	20	17	;	;	:
homer-odyssey-850_01	20	18	therefore	therefore	RB
homer-odyssey-850_01	20	19	though	though	IN
homer-odyssey-850_01	20	20	he	-PRON-	PRP
homer-odyssey-850_01	20	21	will	will	MD
homer-odyssey-850_01	20	22	not	not	RB
homer-odyssey-850_01	20	23	kill	kill	VB
homer-odyssey-850_01	20	24	Ulysses	ulyss	NNS
homer-odyssey-850_01	20	25	outright	outright	RB
homer-odyssey-850_01	20	26	,	,	,
homer-odyssey-850_01	20	27	he	-PRON-	PRP
homer-odyssey-850_01	20	28	torments	torment	VBZ
homer-odyssey-850_01	20	29	him	-PRON-	PRP
homer-odyssey-850_01	20	30	by	by	IN
homer-odyssey-850_01	20	31	preventing	prevent	VBG
homer-odyssey-850_01	20	32	him	-PRON-	PRP
homer-odyssey-850_01	20	33	from	from	IN
homer-odyssey-850_01	20	34	getting	get	VBG
homer-odyssey-850_01	20	35	home	home	NN
homer-odyssey-850_01	20	36	.	.	.
homer-odyssey-850_01	21	1	Still	still	RB
homer-odyssey-850_01	21	2	,	,	,
homer-odyssey-850_01	21	3	let	let	VB
homer-odyssey-850_01	21	4	us	-PRON-	PRP
homer-odyssey-850_01	21	5	lay	lay	VB
homer-odyssey-850_01	21	6	our	-PRON-	PRP$
homer-odyssey-850_01	21	7	heads	head	NNS
homer-odyssey-850_01	21	8	together	together	RB
homer-odyssey-850_01	21	9	and	and	CC
homer-odyssey-850_01	21	10	see	see	VB
homer-odyssey-850_01	21	11	how	how	WRB
homer-odyssey-850_01	21	12	we	-PRON-	PRP
homer-odyssey-850_01	21	13	can	can	MD
homer-odyssey-850_01	21	14	help	help	VB
homer-odyssey-850_01	21	15	him	-PRON-	PRP
homer-odyssey-850_01	21	16	to	to	TO
homer-odyssey-850_01	21	17	return	return	VB
homer-odyssey-850_01	21	18	;	;	:
homer-odyssey-850_01	21	19	Neptune	neptune	NNP
homer-odyssey-850_01	21	20	will	will	MD
homer-odyssey-850_01	21	21	then	then	RB
homer-odyssey-850_01	21	22	be	be	VB
homer-odyssey-850_01	21	23	pacified	pacify	VBN
homer-odyssey-850_01	21	24	,	,	,
homer-odyssey-850_01	21	25	for	for	IN
homer-odyssey-850_01	21	26	if	if	IN
homer-odyssey-850_01	21	27	we	-PRON-	PRP
homer-odyssey-850_01	21	28	are	be	VBP
homer-odyssey-850_01	21	29	all	all	DT
homer-odyssey-850_01	21	30	of	of	IN
homer-odyssey-850_01	21	31	a	a	DT
homer-odyssey-850_01	21	32	mind	mind	NN
homer-odyssey-850_01	21	33	he	-PRON-	PRP
homer-odyssey-850_01	21	34	can	can	MD
homer-odyssey-850_01	21	35	hardly	hardly	RB
homer-odyssey-850_01	21	36	stand	stand	VB
homer-odyssey-850_01	21	37	out	out	RP
homer-odyssey-850_01	21	38	against	against	IN
homer-odyssey-850_01	21	39	us	-PRON-	PRP
homer-odyssey-850_01	21	40	.	.	.
homer-odyssey-850_01	21	41	"	"	''
homer-odyssey-850_01	22	1	And	and	CC
homer-odyssey-850_01	22	2	Minerva	minerva	NNP
homer-odyssey-850_01	22	3	said	say	VBD
homer-odyssey-850_01	22	4	,	,	,
homer-odyssey-850_01	22	5	"	"	``
homer-odyssey-850_01	22	6	Father	father	NNP
homer-odyssey-850_01	22	7	,	,	,
homer-odyssey-850_01	22	8	son	son	NN
homer-odyssey-850_01	22	9	of	of	IN
homer-odyssey-850_01	22	10	Saturn	saturn	NNP
homer-odyssey-850_01	22	11	,	,	,
homer-odyssey-850_01	22	12	King	king	NNP
homer-odyssey-850_01	22	13	of	of	IN
homer-odyssey-850_01	22	14	kings	king	NNS
homer-odyssey-850_01	22	15	,	,	,
homer-odyssey-850_01	22	16	if	if	IN
homer-odyssey-850_01	22	17	,	,	,
homer-odyssey-850_01	22	18	then	then	RB
homer-odyssey-850_01	22	19	,	,	,
homer-odyssey-850_01	22	20	the	the	DT
homer-odyssey-850_01	22	21	gods	god	NNS
homer-odyssey-850_01	22	22	now	now	RB
homer-odyssey-850_01	22	23	mean	mean	VBP
homer-odyssey-850_01	22	24	that	that	IN
homer-odyssey-850_01	22	25	Ulysses	ulyss	NNS
homer-odyssey-850_01	22	26	should	should	MD
homer-odyssey-850_01	22	27	get	get	VB
homer-odyssey-850_01	22	28	home	home	RB
homer-odyssey-850_01	22	29	,	,	,
homer-odyssey-850_01	22	30	we	-PRON-	PRP
homer-odyssey-850_01	22	31	should	should	MD
homer-odyssey-850_01	22	32	first	first	RB
homer-odyssey-850_01	22	33	send	send	VB
homer-odyssey-850_01	22	34	Mercury	mercury	NNP
homer-odyssey-850_01	22	35	to	to	IN
homer-odyssey-850_01	22	36	the	the	DT
homer-odyssey-850_01	22	37	Ogygian	ogygian	JJ
homer-odyssey-850_01	22	38	island	island	NN
homer-odyssey-850_01	22	39	to	to	TO
homer-odyssey-850_01	22	40	tell	tell	VB
homer-odyssey-850_01	22	41	Calypso	calypso	NNP
homer-odyssey-850_01	22	42	that	that	IN
homer-odyssey-850_01	22	43	we	-PRON-	PRP
homer-odyssey-850_01	22	44	have	have	VBP
homer-odyssey-850_01	22	45	made	make	VBN
homer-odyssey-850_01	22	46	up	up	RP
homer-odyssey-850_01	22	47	our	-PRON-	PRP$
homer-odyssey-850_01	22	48	minds	mind	NNS
homer-odyssey-850_01	22	49	and	and	CC
homer-odyssey-850_01	22	50	that	that	IN
homer-odyssey-850_01	22	51	he	-PRON-	PRP
homer-odyssey-850_01	22	52	is	be	VBZ
homer-odyssey-850_01	22	53	to	to	TO
homer-odyssey-850_01	22	54	return	return	VB
homer-odyssey-850_01	22	55	.	.	.
homer-odyssey-850_01	23	1	In	in	IN
homer-odyssey-850_01	23	2	the	the	DT
homer-odyssey-850_01	23	3	meantime	meantime	NN
homer-odyssey-850_01	23	4	I	-PRON-	PRP
homer-odyssey-850_01	23	5	will	will	MD
homer-odyssey-850_01	23	6	go	go	VB
homer-odyssey-850_01	23	7	to	to	IN
homer-odyssey-850_01	23	8	Ithaca	ithaca	NNP
homer-odyssey-850_01	23	9	,	,	,
homer-odyssey-850_01	23	10	to	to	TO
homer-odyssey-850_01	23	11	put	put	VB
homer-odyssey-850_01	23	12	heart	heart	NN
homer-odyssey-850_01	23	13	into	into	IN
homer-odyssey-850_01	23	14	Ulysses	ulyss	NNS
homer-odyssey-850_01	23	15	'	'	POS
homer-odyssey-850_01	23	16	son	son	NN
homer-odyssey-850_01	23	17	Telemachus	telemachus	NNP
homer-odyssey-850_01	23	18	;	;	:
homer-odyssey-850_01	23	19	I	-PRON-	PRP
homer-odyssey-850_01	23	20	will	will	MD
homer-odyssey-850_01	23	21	embolden	embolden	VB
homer-odyssey-850_01	23	22	him	-PRON-	PRP
homer-odyssey-850_01	23	23	to	to	TO
homer-odyssey-850_01	23	24	call	call	VB
homer-odyssey-850_01	23	25	the	the	DT
homer-odyssey-850_01	23	26	Achaeans	achaeans	NNPS
homer-odyssey-850_01	23	27	in	in	IN
homer-odyssey-850_01	23	28	assembly	assembly	NN
homer-odyssey-850_01	23	29	,	,	,
homer-odyssey-850_01	23	30	and	and	CC
homer-odyssey-850_01	23	31	speak	speak	VB
homer-odyssey-850_01	23	32	out	out	RP
homer-odyssey-850_01	23	33	to	to	IN
homer-odyssey-850_01	23	34	the	the	DT
homer-odyssey-850_01	23	35	suitors	suitor	NNS
homer-odyssey-850_01	23	36	of	of	IN
homer-odyssey-850_01	23	37	his	-PRON-	PRP$
homer-odyssey-850_01	23	38	mother	mother	NN
homer-odyssey-850_01	23	39	Penelope	penelope	NNP
homer-odyssey-850_01	23	40	,	,	,
homer-odyssey-850_01	23	41	who	who	WP
homer-odyssey-850_01	23	42	persist	persist	VBP
homer-odyssey-850_01	23	43	in	in	IN
homer-odyssey-850_01	23	44	eating	eat	VBG
homer-odyssey-850_01	23	45	up	up	RP
homer-odyssey-850_01	23	46	any	any	DT
homer-odyssey-850_01	23	47	number	number	NN
homer-odyssey-850_01	23	48	of	of	IN
homer-odyssey-850_01	23	49	his	-PRON-	PRP$
homer-odyssey-850_01	23	50	sheep	sheep	NNS
homer-odyssey-850_01	23	51	and	and	CC
homer-odyssey-850_01	23	52	oxen	oxen	NN
homer-odyssey-850_01	23	53	;	;	:
homer-odyssey-850_01	23	54	I	-PRON-	PRP
homer-odyssey-850_01	23	55	will	will	MD
homer-odyssey-850_01	23	56	also	also	RB
homer-odyssey-850_01	23	57	conduct	conduct	VB
homer-odyssey-850_01	23	58	him	-PRON-	PRP
homer-odyssey-850_01	23	59	to	to	IN
homer-odyssey-850_01	23	60	Sparta	sparta	NNP
homer-odyssey-850_01	23	61	and	and	CC
homer-odyssey-850_01	23	62	to	to	IN
homer-odyssey-850_01	23	63	Pylos	pylos	NNP
homer-odyssey-850_01	23	64	,	,	,
homer-odyssey-850_01	23	65	to	to	TO
homer-odyssey-850_01	23	66	see	see	VB
homer-odyssey-850_01	23	67	if	if	IN
homer-odyssey-850_01	23	68	he	-PRON-	PRP
homer-odyssey-850_01	23	69	can	can	MD
homer-odyssey-850_01	23	70	hear	hear	VB
homer-odyssey-850_01	23	71	anything	anything	NN
homer-odyssey-850_01	23	72	about	about	IN
homer-odyssey-850_01	23	73	the	the	DT
homer-odyssey-850_01	23	74	return	return	NN
homer-odyssey-850_01	23	75	of	of	IN
homer-odyssey-850_01	23	76	his	-PRON-	PRP$
homer-odyssey-850_01	23	77	dear	dear	JJ
homer-odyssey-850_01	23	78	father--	father--	NN
homer-odyssey-850_01	23	79	for	for	IN
homer-odyssey-850_01	23	80	this	this	DT
homer-odyssey-850_01	23	81	will	will	MD
homer-odyssey-850_01	23	82	make	make	VB
homer-odyssey-850_01	23	83	people	people	NNS
homer-odyssey-850_01	23	84	speak	speak	VB
homer-odyssey-850_01	23	85	well	well	RB
homer-odyssey-850_01	23	86	of	of	IN
homer-odyssey-850_01	23	87	him	-PRON-	PRP
homer-odyssey-850_01	23	88	.	.	.
homer-odyssey-850_01	23	89	"	"	''
homer-odyssey-850_01	24	1	So	so	RB
homer-odyssey-850_01	24	2	saying	say	VBG
homer-odyssey-850_01	24	3	she	-PRON-	PRP
homer-odyssey-850_01	24	4	bound	bind	VBD
homer-odyssey-850_01	24	5	on	on	IN
homer-odyssey-850_01	24	6	her	-PRON-	PRP$
homer-odyssey-850_01	24	7	glittering	glitter	VBG
homer-odyssey-850_01	24	8	golden	golden	JJ
homer-odyssey-850_01	24	9	sandals	sandal	NNS
homer-odyssey-850_01	24	10	,	,	,
homer-odyssey-850_01	24	11	imperishable	imperishable	JJ
homer-odyssey-850_01	24	12	,	,	,
homer-odyssey-850_01	24	13	with	with	IN
homer-odyssey-850_01	24	14	which	which	WDT
homer-odyssey-850_01	24	15	she	-PRON-	PRP
homer-odyssey-850_01	24	16	can	can	MD
homer-odyssey-850_01	24	17	fly	fly	VB
homer-odyssey-850_01	24	18	like	like	IN
homer-odyssey-850_01	24	19	the	the	DT
homer-odyssey-850_01	24	20	wind	wind	NN
homer-odyssey-850_01	24	21	over	over	IN
homer-odyssey-850_01	24	22	land	land	NN
homer-odyssey-850_01	24	23	or	or	CC
homer-odyssey-850_01	24	24	sea	sea	NN
homer-odyssey-850_01	24	25	;	;	:
homer-odyssey-850_01	24	26	she	-PRON-	PRP
homer-odyssey-850_01	24	27	grasped	grasp	VBD
homer-odyssey-850_01	24	28	the	the	DT
homer-odyssey-850_01	24	29	redoubtable	redoubtable	JJ
homer-odyssey-850_01	24	30	bronze-	bronze-	FW
homer-odyssey-850_01	24	31	shod	shod	NN
homer-odyssey-850_01	24	32	spear	spear	NN
homer-odyssey-850_01	24	33	,	,	,
homer-odyssey-850_01	24	34	so	so	RB
homer-odyssey-850_01	24	35	stout	stout	JJ
homer-odyssey-850_01	24	36	and	and	CC
homer-odyssey-850_01	24	37	sturdy	sturdy	JJ
homer-odyssey-850_01	24	38	and	and	CC
homer-odyssey-850_01	24	39	strong	strong	JJ
homer-odyssey-850_01	24	40	,	,	,
homer-odyssey-850_01	24	41	wherewith	wherewith	VB
homer-odyssey-850_01	24	42	she	-PRON-	PRP
homer-odyssey-850_01	24	43	quells	quell	VBZ
homer-odyssey-850_01	24	44	the	the	DT
homer-odyssey-850_01	24	45	ranks	rank	NNS
homer-odyssey-850_01	24	46	of	of	IN
homer-odyssey-850_01	24	47	heroes	hero	NNS
homer-odyssey-850_01	24	48	who	who	WP
homer-odyssey-850_01	24	49	have	have	VBP
homer-odyssey-850_01	24	50	displeased	displease	VBN
homer-odyssey-850_01	24	51	her	-PRON-	PRP
homer-odyssey-850_01	24	52	,	,	,
homer-odyssey-850_01	24	53	and	and	CC
homer-odyssey-850_01	24	54	down	down	RB
homer-odyssey-850_01	24	55	she	-PRON-	PRP
homer-odyssey-850_01	24	56	darted	dart	VBD
homer-odyssey-850_01	24	57	from	from	IN
homer-odyssey-850_01	24	58	the	the	DT
homer-odyssey-850_01	24	59	topmost	topmost	JJS
homer-odyssey-850_01	24	60	summits	summit	NNS
homer-odyssey-850_01	24	61	of	of	IN
homer-odyssey-850_01	24	62	Olympus	olympus	NNP
homer-odyssey-850_01	24	63	,	,	,
homer-odyssey-850_01	24	64	whereon	whereon	NN
homer-odyssey-850_01	24	65	forthwith	forthwith	NN
homer-odyssey-850_01	24	66	she	-PRON-	PRP
homer-odyssey-850_01	24	67	was	be	VBD
homer-odyssey-850_01	24	68	in	in	IN
homer-odyssey-850_01	24	69	Ithaca	ithaca	NNP
homer-odyssey-850_01	24	70	,	,	,
homer-odyssey-850_01	24	71	at	at	IN
homer-odyssey-850_01	24	72	the	the	DT
homer-odyssey-850_01	24	73	gateway	gateway	NN
homer-odyssey-850_01	24	74	of	of	IN
homer-odyssey-850_01	24	75	Ulysses	ulysses	NNPS
homer-odyssey-850_01	24	76	'	'	POS
homer-odyssey-850_01	24	77	house	house	NN
homer-odyssey-850_01	24	78	,	,	,
homer-odyssey-850_01	24	79	disguised	disguise	VBN
homer-odyssey-850_01	24	80	as	as	IN
homer-odyssey-850_01	24	81	a	a	DT
homer-odyssey-850_01	24	82	visitor	visitor	NN
homer-odyssey-850_01	24	83	,	,	,
homer-odyssey-850_01	24	84	Mentes	mentes	NNPS
homer-odyssey-850_01	24	85	,	,	,
homer-odyssey-850_01	24	86	chief	chief	NN
homer-odyssey-850_01	24	87	of	of	IN
homer-odyssey-850_01	24	88	the	the	DT
homer-odyssey-850_01	24	89	Taphians	taphians	NNPS
homer-odyssey-850_01	24	90	,	,	,
homer-odyssey-850_01	24	91	and	and	CC
homer-odyssey-850_01	24	92	she	-PRON-	PRP
homer-odyssey-850_01	24	93	held	hold	VBD
homer-odyssey-850_01	24	94	a	a	DT
homer-odyssey-850_01	24	95	bronze	bronze	NN
homer-odyssey-850_01	24	96	spear	spear	NN
homer-odyssey-850_01	24	97	in	in	IN
homer-odyssey-850_01	24	98	her	-PRON-	PRP$
homer-odyssey-850_01	24	99	hand	hand	NN
homer-odyssey-850_01	24	100	.	.	.
homer-odyssey-850_01	25	1	There	there	RB
homer-odyssey-850_01	25	2	she	-PRON-	PRP
homer-odyssey-850_01	25	3	found	find	VBD
homer-odyssey-850_01	25	4	the	the	DT
homer-odyssey-850_01	25	5	lordly	lordly	JJ
homer-odyssey-850_01	25	6	suitors	suitor	NNS
homer-odyssey-850_01	25	7	seated	seat	VBN
homer-odyssey-850_01	25	8	on	on	IN
homer-odyssey-850_01	25	9	hides	hide	NNS
homer-odyssey-850_01	25	10	of	of	IN
homer-odyssey-850_01	25	11	the	the	DT
homer-odyssey-850_01	25	12	oxen	oxen	NN
homer-odyssey-850_01	25	13	which	which	WDT
homer-odyssey-850_01	25	14	they	-PRON-	PRP
homer-odyssey-850_01	25	15	had	have	VBD
homer-odyssey-850_01	25	16	killed	kill	VBN
homer-odyssey-850_01	25	17	and	and	CC
homer-odyssey-850_01	25	18	eaten	eat	VBN
homer-odyssey-850_01	25	19	,	,	,
homer-odyssey-850_01	25	20	and	and	CC
homer-odyssey-850_01	25	21	playing	play	VBG
homer-odyssey-850_01	25	22	draughts	draught	NNS
homer-odyssey-850_01	25	23	in	in	IN
homer-odyssey-850_01	25	24	front	front	NN
homer-odyssey-850_01	25	25	of	of	IN
homer-odyssey-850_01	25	26	the	the	DT
homer-odyssey-850_01	25	27	house	house	NN
homer-odyssey-850_01	25	28	.	.	.
homer-odyssey-850_01	26	1	Men-	men-	NNP
homer-odyssey-850_01	26	2	servants	servant	NNS
homer-odyssey-850_01	26	3	and	and	CC
homer-odyssey-850_01	26	4	pages	page	NNS
homer-odyssey-850_01	26	5	were	be	VBD
homer-odyssey-850_01	26	6	bustling	bustle	VBG
homer-odyssey-850_01	26	7	about	about	IN
homer-odyssey-850_01	26	8	to	to	TO
homer-odyssey-850_01	26	9	wait	wait	VB
homer-odyssey-850_01	26	10	upon	upon	IN
homer-odyssey-850_01	26	11	them	-PRON-	PRP
homer-odyssey-850_01	26	12	,	,	,
homer-odyssey-850_01	26	13	some	some	DT
homer-odyssey-850_01	26	14	mixing	mix	VBG
homer-odyssey-850_01	26	15	wine	wine	NN
homer-odyssey-850_01	26	16	with	with	IN
homer-odyssey-850_01	26	17	water	water	NN
homer-odyssey-850_01	26	18	in	in	IN
homer-odyssey-850_01	26	19	the	the	DT
homer-odyssey-850_01	26	20	mixing-	mixing-	JJ
homer-odyssey-850_01	26	21	bowls	bowl	NNS
homer-odyssey-850_01	26	22	,	,	,
homer-odyssey-850_01	26	23	some	some	DT
homer-odyssey-850_01	26	24	cleaning	clean	VBG
homer-odyssey-850_01	26	25	down	down	RP
homer-odyssey-850_01	26	26	the	the	DT
homer-odyssey-850_01	26	27	tables	table	NNS
homer-odyssey-850_01	26	28	with	with	IN
homer-odyssey-850_01	26	29	wet	wet	JJ
homer-odyssey-850_01	26	30	sponges	sponge	NNS
homer-odyssey-850_01	26	31	and	and	CC
homer-odyssey-850_01	26	32	laying	lay	VBG
homer-odyssey-850_01	26	33	them	-PRON-	PRP
homer-odyssey-850_01	26	34	out	out	RP
homer-odyssey-850_01	26	35	again	again	RB
homer-odyssey-850_01	26	36	,	,	,
homer-odyssey-850_01	26	37	and	and	CC
homer-odyssey-850_01	26	38	some	some	DT
homer-odyssey-850_01	26	39	cutting	cut	VBG
homer-odyssey-850_01	26	40	up	up	RP
homer-odyssey-850_01	26	41	great	great	JJ
homer-odyssey-850_01	26	42	quantities	quantity	NNS
homer-odyssey-850_01	26	43	of	of	IN
homer-odyssey-850_01	26	44	meat	meat	NN
homer-odyssey-850_01	26	45	.	.	.
homer-odyssey-850_01	27	1	Telemachus	telemachus	NNP
homer-odyssey-850_01	27	2	saw	see	VBD
homer-odyssey-850_01	27	3	her	-PRON-	PRP
homer-odyssey-850_01	27	4	long	long	RB
homer-odyssey-850_01	27	5	before	before	IN
homer-odyssey-850_01	27	6	any	any	DT
homer-odyssey-850_01	27	7	one	one	NN
homer-odyssey-850_01	27	8	else	else	RB
homer-odyssey-850_01	27	9	did	do	VBD
homer-odyssey-850_01	27	10	.	.	.
homer-odyssey-850_01	28	1	He	-PRON-	PRP
homer-odyssey-850_01	28	2	was	be	VBD
homer-odyssey-850_01	28	3	sitting	sit	VBG
homer-odyssey-850_01	28	4	moodily	moodily	RB
homer-odyssey-850_01	28	5	among	among	IN
homer-odyssey-850_01	28	6	the	the	DT
homer-odyssey-850_01	28	7	suitors	suitor	NNS
homer-odyssey-850_01	28	8	thinking	think	VBG
homer-odyssey-850_01	28	9	about	about	IN
homer-odyssey-850_01	28	10	his	-PRON-	PRP$
homer-odyssey-850_01	28	11	brave	brave	JJ
homer-odyssey-850_01	28	12	father	father	NN
homer-odyssey-850_01	28	13	,	,	,
homer-odyssey-850_01	28	14	and	and	CC
homer-odyssey-850_01	28	15	how	how	WRB
homer-odyssey-850_01	28	16	he	-PRON-	PRP
homer-odyssey-850_01	28	17	would	would	MD
homer-odyssey-850_01	28	18	send	send	VB
homer-odyssey-850_01	28	19	them	-PRON-	PRP
homer-odyssey-850_01	28	20	flying	fly	VBG
homer-odyssey-850_01	28	21	out	out	IN
homer-odyssey-850_01	28	22	of	of	IN
homer-odyssey-850_01	28	23	the	the	DT
homer-odyssey-850_01	28	24	house	house	NN
homer-odyssey-850_01	28	25	,	,	,
homer-odyssey-850_01	28	26	if	if	IN
homer-odyssey-850_01	28	27	he	-PRON-	PRP
homer-odyssey-850_01	28	28	were	be	VBD
homer-odyssey-850_01	28	29	to	to	TO
homer-odyssey-850_01	28	30	come	come	VB
homer-odyssey-850_01	28	31	to	to	IN
homer-odyssey-850_01	28	32	his	-PRON-	PRP$
homer-odyssey-850_01	28	33	own	own	JJ
homer-odyssey-850_01	28	34	again	again	RB
homer-odyssey-850_01	28	35	and	and	CC
homer-odyssey-850_01	28	36	be	be	VB
homer-odyssey-850_01	28	37	honoured	honour	VBN
homer-odyssey-850_01	28	38	as	as	IN
homer-odyssey-850_01	28	39	in	in	IN
homer-odyssey-850_01	28	40	days	day	NNS
homer-odyssey-850_01	28	41	gone	go	VBN
homer-odyssey-850_01	28	42	by	by	RB
homer-odyssey-850_01	28	43	.	.	.
homer-odyssey-850_01	29	1	Thus	thus	RB
homer-odyssey-850_01	29	2	brooding	brood	VBG
homer-odyssey-850_01	29	3	as	as	IN
homer-odyssey-850_01	29	4	he	-PRON-	PRP
homer-odyssey-850_01	29	5	sat	sit	VBD
homer-odyssey-850_01	29	6	among	among	IN
homer-odyssey-850_01	29	7	them	-PRON-	PRP
homer-odyssey-850_01	29	8	,	,	,
homer-odyssey-850_01	29	9	he	-PRON-	PRP
homer-odyssey-850_01	29	10	caught	catch	VBD
homer-odyssey-850_01	29	11	sight	sight	NN
homer-odyssey-850_01	29	12	of	of	IN
homer-odyssey-850_01	29	13	Minerva	minerva	NNP
homer-odyssey-850_01	29	14	and	and	CC
homer-odyssey-850_01	29	15	went	go	VBD
homer-odyssey-850_01	29	16	straight	straight	RB
homer-odyssey-850_01	29	17	to	to	IN
homer-odyssey-850_01	29	18	the	the	DT
homer-odyssey-850_01	29	19	gate	gate	NN
homer-odyssey-850_01	29	20	,	,	,
homer-odyssey-850_01	29	21	for	for	IN
homer-odyssey-850_01	29	22	he	-PRON-	PRP
homer-odyssey-850_01	29	23	was	be	VBD
homer-odyssey-850_01	29	24	vexed	vex	VBN
homer-odyssey-850_01	29	25	that	that	IN
homer-odyssey-850_01	29	26	a	a	DT
homer-odyssey-850_01	29	27	stranger	stranger	NN
homer-odyssey-850_01	29	28	should	should	MD
homer-odyssey-850_01	29	29	be	be	VB
homer-odyssey-850_01	29	30	kept	keep	VBN
homer-odyssey-850_01	29	31	waiting	wait	VBG
homer-odyssey-850_01	29	32	for	for	IN
homer-odyssey-850_01	29	33	admittance	admittance	NN
homer-odyssey-850_01	29	34	.	.	.
homer-odyssey-850_01	30	1	He	-PRON-	PRP
homer-odyssey-850_01	30	2	took	take	VBD
homer-odyssey-850_01	30	3	her	-PRON-	PRP
homer-odyssey-850_01	30	4	right	right	JJ
homer-odyssey-850_01	30	5	hand	hand	NN
homer-odyssey-850_01	30	6	in	in	IN
homer-odyssey-850_01	30	7	his	-PRON-	PRP$
homer-odyssey-850_01	30	8	own	own	JJ
homer-odyssey-850_01	30	9	,	,	,
homer-odyssey-850_01	30	10	and	and	CC
homer-odyssey-850_01	30	11	bade	bade	VB
homer-odyssey-850_01	30	12	her	-PRON-	PRP
homer-odyssey-850_01	30	13	give	give	VB
homer-odyssey-850_01	30	14	him	-PRON-	PRP
homer-odyssey-850_01	30	15	her	-PRON-	PRP$
homer-odyssey-850_01	30	16	spear	spear	NN
homer-odyssey-850_01	30	17	.	.	.
homer-odyssey-850_01	30	18	"	"	''
homer-odyssey-850_01	31	1	Welcome	welcome	UH
homer-odyssey-850_01	31	2	,	,	,
homer-odyssey-850_01	31	3	"	"	''
homer-odyssey-850_01	31	4	said	say	VBD
homer-odyssey-850_01	31	5	he	-PRON-	PRP
homer-odyssey-850_01	31	6	,	,	,
homer-odyssey-850_01	31	7	"	"	``
homer-odyssey-850_01	31	8	to	to	IN
homer-odyssey-850_01	31	9	our	-PRON-	PRP$
homer-odyssey-850_01	31	10	house	house	NN
homer-odyssey-850_01	31	11	,	,	,
homer-odyssey-850_01	31	12	and	and	CC
homer-odyssey-850_01	31	13	when	when	WRB
homer-odyssey-850_01	31	14	you	-PRON-	PRP
homer-odyssey-850_01	31	15	have	have	VBP
homer-odyssey-850_01	31	16	partaken	partake	VBN
homer-odyssey-850_01	31	17	of	of	IN
homer-odyssey-850_01	31	18	food	food	NN
homer-odyssey-850_01	31	19	you	-PRON-	PRP
homer-odyssey-850_01	31	20	shall	shall	MD
homer-odyssey-850_01	31	21	tell	tell	VB
homer-odyssey-850_01	31	22	us	-PRON-	PRP
homer-odyssey-850_01	31	23	what	what	WP
homer-odyssey-850_01	31	24	you	-PRON-	PRP
homer-odyssey-850_01	31	25	have	have	VBP
homer-odyssey-850_01	31	26	come	come	VBN
homer-odyssey-850_01	31	27	for	for	IN
homer-odyssey-850_01	31	28	.	.	.
homer-odyssey-850_01	31	29	"	"	''
homer-odyssey-850_01	32	1	He	-PRON-	PRP
homer-odyssey-850_01	32	2	led	lead	VBD
homer-odyssey-850_01	32	3	the	the	DT
homer-odyssey-850_01	32	4	way	way	NN
homer-odyssey-850_01	32	5	as	as	IN
homer-odyssey-850_01	32	6	he	-PRON-	PRP
homer-odyssey-850_01	32	7	spoke	speak	VBD
homer-odyssey-850_01	32	8	,	,	,
homer-odyssey-850_01	32	9	and	and	CC
homer-odyssey-850_01	32	10	Minerva	minerva	NNP
homer-odyssey-850_01	32	11	followed	follow	VBD
homer-odyssey-850_01	32	12	him	-PRON-	PRP
homer-odyssey-850_01	32	13	.	.	.
homer-odyssey-850_01	33	1	When	when	WRB
homer-odyssey-850_01	33	2	they	-PRON-	PRP
homer-odyssey-850_01	33	3	were	be	VBD
homer-odyssey-850_01	33	4	within	within	IN
homer-odyssey-850_01	33	5	he	-PRON-	PRP
homer-odyssey-850_01	33	6	took	take	VBD
homer-odyssey-850_01	33	7	her	-PRON-	PRP$
homer-odyssey-850_01	33	8	spear	spear	NN
homer-odyssey-850_01	33	9	and	and	CC
homer-odyssey-850_01	33	10	set	set	VBD
homer-odyssey-850_01	33	11	it	-PRON-	PRP
homer-odyssey-850_01	33	12	in	in	IN
homer-odyssey-850_01	33	13	the	the	DT
homer-odyssey-850_01	33	14	spear-	spear-	JJ
homer-odyssey-850_01	33	15	stand	stand	NN
homer-odyssey-850_01	33	16	against	against	IN
homer-odyssey-850_01	33	17	a	a	DT
homer-odyssey-850_01	33	18	strong	strong	JJ
homer-odyssey-850_01	33	19	bearing-	bearing-	JJ
homer-odyssey-850_01	33	20	post	post	NN
homer-odyssey-850_01	33	21	along	along	IN
homer-odyssey-850_01	33	22	with	with	IN
homer-odyssey-850_01	33	23	the	the	DT
homer-odyssey-850_01	33	24	many	many	JJ
homer-odyssey-850_01	33	25	other	other	JJ
homer-odyssey-850_01	33	26	spears	spear	NNS
homer-odyssey-850_01	33	27	of	of	IN
homer-odyssey-850_01	33	28	his	-PRON-	PRP$
homer-odyssey-850_01	33	29	unhappy	unhappy	JJ
homer-odyssey-850_01	33	30	father	father	NN
homer-odyssey-850_01	33	31	,	,	,
homer-odyssey-850_01	33	32	and	and	CC
homer-odyssey-850_01	33	33	he	-PRON-	PRP
homer-odyssey-850_01	33	34	conducted	conduct	VBD
homer-odyssey-850_01	33	35	her	-PRON-	PRP
homer-odyssey-850_01	33	36	to	to	IN
homer-odyssey-850_01	33	37	a	a	DT
homer-odyssey-850_01	33	38	richly	richly	RB
homer-odyssey-850_01	33	39	decorated	decorate	VBN
homer-odyssey-850_01	33	40	seat	seat	NN
homer-odyssey-850_01	33	41	under	under	IN
homer-odyssey-850_01	33	42	which	which	WDT
homer-odyssey-850_01	33	43	he	-PRON-	PRP
homer-odyssey-850_01	33	44	threw	throw	VBD
homer-odyssey-850_01	33	45	a	a	DT
homer-odyssey-850_01	33	46	cloth	cloth	NN
homer-odyssey-850_01	33	47	of	of	IN
homer-odyssey-850_01	33	48	damask	damask	NN
homer-odyssey-850_01	33	49	.	.	.
homer-odyssey-850_01	34	1	There	there	EX
homer-odyssey-850_01	34	2	was	be	VBD
homer-odyssey-850_01	34	3	a	a	DT
homer-odyssey-850_01	34	4	footstool	footstool	NN
homer-odyssey-850_01	34	5	also	also	RB
homer-odyssey-850_01	34	6	for	for	IN
homer-odyssey-850_01	34	7	her	-PRON-	PRP
homer-odyssey-850_01	34	8	feet,{2	feet,{2	IN
homer-odyssey-850_01	34	9	}	}	-RRB-
homer-odyssey-850_01	34	10	and	and	CC
homer-odyssey-850_01	34	11	he	-PRON-	PRP
homer-odyssey-850_01	34	12	set	set	VBD
homer-odyssey-850_01	34	13	another	another	DT
homer-odyssey-850_01	34	14	seat	seat	NN
homer-odyssey-850_01	34	15	near	near	IN
homer-odyssey-850_01	34	16	her	-PRON-	PRP
homer-odyssey-850_01	34	17	for	for	IN
homer-odyssey-850_01	34	18	himself	-PRON-	PRP
homer-odyssey-850_01	34	19	,	,	,
homer-odyssey-850_01	34	20	away	away	RB
homer-odyssey-850_01	34	21	from	from	IN
homer-odyssey-850_01	34	22	the	the	DT
homer-odyssey-850_01	34	23	suitors	suitor	NNS
homer-odyssey-850_01	34	24	,	,	,
homer-odyssey-850_01	34	25	that	that	IN
homer-odyssey-850_01	34	26	she	-PRON-	PRP
homer-odyssey-850_01	34	27	might	may	MD
homer-odyssey-850_01	34	28	not	not	RB
homer-odyssey-850_01	34	29	be	be	VB
homer-odyssey-850_01	34	30	annoyed	annoy	VBN
homer-odyssey-850_01	34	31	while	while	IN
homer-odyssey-850_01	34	32	eating	eat	VBG
homer-odyssey-850_01	34	33	by	by	IN
homer-odyssey-850_01	34	34	their	-PRON-	PRP$
homer-odyssey-850_01	34	35	noise	noise	NN
homer-odyssey-850_01	34	36	and	and	CC
homer-odyssey-850_01	34	37	insolence	insolence	NN
homer-odyssey-850_01	34	38	,	,	,
homer-odyssey-850_01	34	39	and	and	CC
homer-odyssey-850_01	34	40	that	that	IN
homer-odyssey-850_01	34	41	he	-PRON-	PRP
homer-odyssey-850_01	34	42	might	may	MD
homer-odyssey-850_01	34	43	ask	ask	VB
homer-odyssey-850_01	34	44	her	-PRON-	PRP
homer-odyssey-850_01	34	45	more	more	RBR
homer-odyssey-850_01	34	46	freely	freely	RB
homer-odyssey-850_01	34	47	about	about	IN
homer-odyssey-850_01	34	48	his	-PRON-	PRP$
homer-odyssey-850_01	34	49	father	father	NN
homer-odyssey-850_01	34	50	.	.	.
homer-odyssey-850_01	35	1	A	a	DT
homer-odyssey-850_01	35	2	maid	maid	JJ
homer-odyssey-850_01	35	3	servant	servant	NN
homer-odyssey-850_01	35	4	then	then	RB
homer-odyssey-850_01	35	5	brought	bring	VBD
homer-odyssey-850_01	35	6	them	-PRON-	PRP
homer-odyssey-850_01	35	7	water	water	NN
homer-odyssey-850_01	35	8	in	in	IN
homer-odyssey-850_01	35	9	a	a	DT
homer-odyssey-850_01	35	10	beautiful	beautiful	JJ
homer-odyssey-850_01	35	11	golden	golden	JJ
homer-odyssey-850_01	35	12	ewer	ewer	NN
homer-odyssey-850_01	35	13	and	and	CC
homer-odyssey-850_01	35	14	poured	pour	VBD
homer-odyssey-850_01	35	15	it	-PRON-	PRP
homer-odyssey-850_01	35	16	into	into	IN
homer-odyssey-850_01	35	17	a	a	DT
homer-odyssey-850_01	35	18	silver	silver	JJ
homer-odyssey-850_01	35	19	basin	basin	NN
homer-odyssey-850_01	35	20	for	for	IN
homer-odyssey-850_01	35	21	them	-PRON-	PRP
homer-odyssey-850_01	35	22	to	to	TO
homer-odyssey-850_01	35	23	wash	wash	VB
homer-odyssey-850_01	35	24	their	-PRON-	PRP$
homer-odyssey-850_01	35	25	hands	hand	NNS
homer-odyssey-850_01	35	26	,	,	,
homer-odyssey-850_01	35	27	and	and	CC
homer-odyssey-850_01	35	28	she	-PRON-	PRP
homer-odyssey-850_01	35	29	drew	draw	VBD
homer-odyssey-850_01	35	30	a	a	DT
homer-odyssey-850_01	35	31	clean	clean	JJ
homer-odyssey-850_01	35	32	table	table	NN
homer-odyssey-850_01	35	33	beside	beside	IN
homer-odyssey-850_01	35	34	them	-PRON-	PRP
homer-odyssey-850_01	35	35	.	.	.
homer-odyssey-850_01	36	1	An	an	DT
homer-odyssey-850_01	36	2	upper	upper	JJ
homer-odyssey-850_01	36	3	servant	servant	NN
homer-odyssey-850_01	36	4	brought	bring	VBD
homer-odyssey-850_01	36	5	them	-PRON-	PRP
homer-odyssey-850_01	36	6	bread	bread	NN
homer-odyssey-850_01	36	7	,	,	,
homer-odyssey-850_01	36	8	and	and	CC
homer-odyssey-850_01	36	9	offered	offer	VBD
homer-odyssey-850_01	36	10	them	-PRON-	PRP
homer-odyssey-850_01	36	11	many	many	JJ
homer-odyssey-850_01	36	12	good	good	JJ
homer-odyssey-850_01	36	13	things	thing	NNS
homer-odyssey-850_01	36	14	of	of	IN
homer-odyssey-850_01	36	15	what	what	WP
homer-odyssey-850_01	36	16	there	there	EX
homer-odyssey-850_01	36	17	was	be	VBD
homer-odyssey-850_01	36	18	in	in	IN
homer-odyssey-850_01	36	19	the	the	DT
homer-odyssey-850_01	36	20	house	house	NN
homer-odyssey-850_01	36	21	,	,	,
homer-odyssey-850_01	36	22	the	the	DT
homer-odyssey-850_01	36	23	carver	carver	NN
homer-odyssey-850_01	36	24	fetched	fetch	VBD
homer-odyssey-850_01	36	25	them	-PRON-	PRP
homer-odyssey-850_01	36	26	plates	plate	NNS
homer-odyssey-850_01	36	27	of	of	IN
homer-odyssey-850_01	36	28	all	all	DT
homer-odyssey-850_01	36	29	manner	manner	NN
homer-odyssey-850_01	36	30	of	of	IN
homer-odyssey-850_01	36	31	meats	meat	NNS
homer-odyssey-850_01	36	32	and	and	CC
homer-odyssey-850_01	36	33	set	set	VBN
homer-odyssey-850_01	36	34	cups	cup	NNS
homer-odyssey-850_01	36	35	of	of	IN
homer-odyssey-850_01	36	36	gold	gold	NN
homer-odyssey-850_01	36	37	by	by	IN
homer-odyssey-850_01	36	38	their	-PRON-	PRP$
homer-odyssey-850_01	36	39	side	side	NN
homer-odyssey-850_01	36	40	,	,	,
homer-odyssey-850_01	36	41	and	and	CC
homer-odyssey-850_01	36	42	a	a	DT
homer-odyssey-850_01	36	43	manservant	manservant	NN
homer-odyssey-850_01	36	44	brought	bring	VBD
homer-odyssey-850_01	36	45	them	-PRON-	PRP
homer-odyssey-850_01	36	46	wine	wine	NN
homer-odyssey-850_01	36	47	and	and	CC
homer-odyssey-850_01	36	48	poured	pour	VBD
homer-odyssey-850_01	36	49	it	-PRON-	PRP
homer-odyssey-850_01	36	50	out	out	RP
homer-odyssey-850_01	36	51	for	for	IN
homer-odyssey-850_01	36	52	them	-PRON-	PRP
homer-odyssey-850_01	36	53	.	.	.
homer-odyssey-850_01	37	1	Then	then	RB
homer-odyssey-850_01	37	2	the	the	DT
homer-odyssey-850_01	37	3	suitors	suitor	NNS
homer-odyssey-850_01	37	4	came	come	VBD
homer-odyssey-850_01	37	5	in	in	RP
homer-odyssey-850_01	37	6	and	and	CC
homer-odyssey-850_01	37	7	took	take	VBD
homer-odyssey-850_01	37	8	their	-PRON-	PRP$
homer-odyssey-850_01	37	9	places	place	NNS
homer-odyssey-850_01	37	10	on	on	IN
homer-odyssey-850_01	37	11	the	the	DT
homer-odyssey-850_01	37	12	benches	bench	NNS
homer-odyssey-850_01	37	13	and	and	CC
homer-odyssey-850_01	37	14	seats	seat	NNS
homer-odyssey-850_01	37	15	.	.	.
homer-odyssey-850_01	38	1	{	{	-LRB-
homer-odyssey-850_01	38	2	3}Forthwith	3}forthwith	CD
homer-odyssey-850_01	38	3	men	man	NNS
homer-odyssey-850_01	38	4	servants	servant	NNS
homer-odyssey-850_01	38	5	poured	pour	VBD
homer-odyssey-850_01	38	6	water	water	NN
homer-odyssey-850_01	38	7	over	over	IN
homer-odyssey-850_01	38	8	their	-PRON-	PRP$
homer-odyssey-850_01	38	9	hands	hand	NNS
homer-odyssey-850_01	38	10	,	,	,
homer-odyssey-850_01	38	11	maids	maid	NNS
homer-odyssey-850_01	38	12	went	go	VBD
homer-odyssey-850_01	38	13	round	round	RB
homer-odyssey-850_01	38	14	with	with	IN
homer-odyssey-850_01	38	15	the	the	DT
homer-odyssey-850_01	38	16	bread-	bread-	JJ
homer-odyssey-850_01	38	17	baskets	basket	NNS
homer-odyssey-850_01	38	18	,	,	,
homer-odyssey-850_01	38	19	pages	page	NNS
homer-odyssey-850_01	38	20	filled	fill	VBD
homer-odyssey-850_01	38	21	the	the	DT
homer-odyssey-850_01	38	22	mixing-	mixing-	JJ
homer-odyssey-850_01	38	23	bowls	bowl	NNS
homer-odyssey-850_01	38	24	with	with	IN
homer-odyssey-850_01	38	25	wine	wine	NN
homer-odyssey-850_01	38	26	and	and	CC
homer-odyssey-850_01	38	27	water	water	NN
homer-odyssey-850_01	38	28	,	,	,
homer-odyssey-850_01	38	29	and	and	CC
homer-odyssey-850_01	38	30	they	-PRON-	PRP
homer-odyssey-850_01	38	31	laid	lay	VBD
homer-odyssey-850_01	38	32	their	-PRON-	PRP$
homer-odyssey-850_01	38	33	hands	hand	NNS
homer-odyssey-850_01	38	34	upon	upon	IN
homer-odyssey-850_01	38	35	the	the	DT
homer-odyssey-850_01	38	36	good	good	JJ
homer-odyssey-850_01	38	37	things	thing	NNS
homer-odyssey-850_01	38	38	that	that	WDT
homer-odyssey-850_01	38	39	were	be	VBD
homer-odyssey-850_01	38	40	before	before	IN
homer-odyssey-850_01	38	41	them	-PRON-	PRP
homer-odyssey-850_01	38	42	.	.	.
homer-odyssey-850_01	39	1	As	as	RB
homer-odyssey-850_01	39	2	soon	soon	RB
homer-odyssey-850_01	39	3	as	as	IN
homer-odyssey-850_01	39	4	they	-PRON-	PRP
homer-odyssey-850_01	39	5	had	have	VBD
homer-odyssey-850_01	39	6	had	have	VBN
homer-odyssey-850_01	39	7	enough	enough	JJ
homer-odyssey-850_01	39	8	to	to	TO
homer-odyssey-850_01	39	9	eat	eat	VB
homer-odyssey-850_01	39	10	and	and	CC
homer-odyssey-850_01	39	11	drink	drink	VB
homer-odyssey-850_01	39	12	they	-PRON-	PRP
homer-odyssey-850_01	39	13	wanted	want	VBD
homer-odyssey-850_01	39	14	music	music	NN
homer-odyssey-850_01	39	15	and	and	CC
homer-odyssey-850_01	39	16	dancing	dancing	NN
homer-odyssey-850_01	39	17	,	,	,
homer-odyssey-850_01	39	18	which	which	WDT
homer-odyssey-850_01	39	19	are	be	VBP
homer-odyssey-850_01	39	20	the	the	DT
homer-odyssey-850_01	39	21	crowning	crowning	JJ
homer-odyssey-850_01	39	22	embellishments	embellishment	NNS
homer-odyssey-850_01	39	23	of	of	IN
homer-odyssey-850_01	39	24	a	a	DT
homer-odyssey-850_01	39	25	banquet	banquet	NN
homer-odyssey-850_01	39	26	,	,	,
homer-odyssey-850_01	39	27	so	so	RB
homer-odyssey-850_01	39	28	a	a	DT
homer-odyssey-850_01	39	29	servant	servant	NN
homer-odyssey-850_01	39	30	brought	bring	VBD
homer-odyssey-850_01	39	31	a	a	DT
homer-odyssey-850_01	39	32	lyre	lyre	NN
homer-odyssey-850_01	39	33	to	to	IN
homer-odyssey-850_01	39	34	Phemius	phemius	NNP
homer-odyssey-850_01	39	35	,	,	,
homer-odyssey-850_01	39	36	whom	whom	WP
homer-odyssey-850_01	39	37	they	-PRON-	PRP
homer-odyssey-850_01	39	38	compelled	compel	VBD
homer-odyssey-850_01	39	39	perforce	perforce	NN
homer-odyssey-850_01	39	40	to	to	TO
homer-odyssey-850_01	39	41	sing	sing	VB
homer-odyssey-850_01	39	42	to	to	IN
homer-odyssey-850_01	39	43	them	-PRON-	PRP
homer-odyssey-850_01	39	44	.	.	.
homer-odyssey-850_01	40	1	As	as	RB
homer-odyssey-850_01	40	2	soon	soon	RB
homer-odyssey-850_01	40	3	as	as	IN
homer-odyssey-850_01	40	4	he	-PRON-	PRP
homer-odyssey-850_01	40	5	touched	touch	VBD
homer-odyssey-850_01	40	6	his	-PRON-	PRP$
homer-odyssey-850_01	40	7	lyre	lyre	NN
homer-odyssey-850_01	40	8	and	and	CC
homer-odyssey-850_01	40	9	began	begin	VBD
homer-odyssey-850_01	40	10	to	to	TO
homer-odyssey-850_01	40	11	sing	sing	VB
homer-odyssey-850_01	40	12	Telemachus	telemachus	NNP
homer-odyssey-850_01	40	13	spoke	speak	VBD
homer-odyssey-850_01	40	14	low	low	JJ
homer-odyssey-850_01	40	15	to	to	IN
homer-odyssey-850_01	40	16	Minerva	minerva	NNP
homer-odyssey-850_01	40	17	,	,	,
homer-odyssey-850_01	40	18	with	with	IN
homer-odyssey-850_01	40	19	his	-PRON-	PRP$
homer-odyssey-850_01	40	20	head	head	NN
homer-odyssey-850_01	40	21	close	close	RB
homer-odyssey-850_01	40	22	to	to	IN
homer-odyssey-850_01	40	23	hers	-PRON-	PRP
homer-odyssey-850_01	40	24	that	that	IN
homer-odyssey-850_01	40	25	no	no	DT
homer-odyssey-850_01	40	26	man	man	NN
homer-odyssey-850_01	40	27	might	may	MD
homer-odyssey-850_01	40	28	hear	hear	VB
homer-odyssey-850_01	40	29	.	.	.
homer-odyssey-850_01	41	1	"	"	``
homer-odyssey-850_01	41	2	I	-PRON-	PRP
homer-odyssey-850_01	41	3	hope	hope	VBP
homer-odyssey-850_01	41	4	,	,	,
homer-odyssey-850_01	41	5	sir	sir	NN
homer-odyssey-850_01	41	6	,	,	,
homer-odyssey-850_01	41	7	"	"	''
homer-odyssey-850_01	41	8	said	say	VBD
homer-odyssey-850_01	41	9	he	-PRON-	PRP
homer-odyssey-850_01	41	10	,	,	,
homer-odyssey-850_01	41	11	"	"	``
homer-odyssey-850_01	41	12	that	that	IN
homer-odyssey-850_01	41	13	you	-PRON-	PRP
homer-odyssey-850_01	41	14	will	will	MD
homer-odyssey-850_01	41	15	not	not	RB
homer-odyssey-850_01	41	16	be	be	VB
homer-odyssey-850_01	41	17	offended	offend	VBN
homer-odyssey-850_01	41	18	with	with	IN
homer-odyssey-850_01	41	19	what	what	WP
homer-odyssey-850_01	41	20	I	-PRON-	PRP
homer-odyssey-850_01	41	21	am	be	VBP
homer-odyssey-850_01	41	22	going	go	VBG
homer-odyssey-850_01	41	23	to	to	TO
homer-odyssey-850_01	41	24	say	say	VB
homer-odyssey-850_01	41	25	.	.	.
homer-odyssey-850_01	42	1	Singing	singing	NN
homer-odyssey-850_01	42	2	comes	come	VBZ
homer-odyssey-850_01	42	3	cheap	cheap	RB
homer-odyssey-850_01	42	4	to	to	IN
homer-odyssey-850_01	42	5	those	those	DT
homer-odyssey-850_01	42	6	who	who	WP
homer-odyssey-850_01	42	7	do	do	VBP
homer-odyssey-850_01	42	8	not	not	RB
homer-odyssey-850_01	42	9	pay	pay	VB
homer-odyssey-850_01	42	10	for	for	IN
homer-odyssey-850_01	42	11	it	-PRON-	PRP
homer-odyssey-850_01	42	12	,	,	,
homer-odyssey-850_01	42	13	and	and	CC
homer-odyssey-850_01	42	14	all	all	PDT
homer-odyssey-850_01	42	15	this	this	DT
homer-odyssey-850_01	42	16	is	be	VBZ
homer-odyssey-850_01	42	17	done	do	VBN
homer-odyssey-850_01	42	18	at	at	IN
homer-odyssey-850_01	42	19	the	the	DT
homer-odyssey-850_01	42	20	cost	cost	NN
homer-odyssey-850_01	42	21	of	of	IN
homer-odyssey-850_01	42	22	one	one	CD
homer-odyssey-850_01	42	23	whose	whose	WP$
homer-odyssey-850_01	42	24	bones	bone	NNS
homer-odyssey-850_01	42	25	lie	lie	VBP
homer-odyssey-850_01	42	26	rotting	rot	VBG
homer-odyssey-850_01	42	27	in	in	IN
homer-odyssey-850_01	42	28	some	some	DT
homer-odyssey-850_01	42	29	wilderness	wilderness	NN
homer-odyssey-850_01	42	30	or	or	CC
homer-odyssey-850_01	42	31	grinding	grind	VBG
homer-odyssey-850_01	42	32	to	to	TO
homer-odyssey-850_01	42	33	powder	powder	VB
homer-odyssey-850_01	42	34	in	in	IN
homer-odyssey-850_01	42	35	the	the	DT
homer-odyssey-850_01	42	36	surf	surf	NN
homer-odyssey-850_01	42	37	.	.	.
homer-odyssey-850_01	43	1	If	if	IN
homer-odyssey-850_01	43	2	these	these	DT
homer-odyssey-850_01	43	3	men	man	NNS
homer-odyssey-850_01	43	4	were	be	VBD
homer-odyssey-850_01	43	5	to	to	TO
homer-odyssey-850_01	43	6	see	see	VB
homer-odyssey-850_01	43	7	my	-PRON-	PRP$
homer-odyssey-850_01	43	8	father	father	NN
homer-odyssey-850_01	43	9	come	come	VB
homer-odyssey-850_01	43	10	back	back	RB
homer-odyssey-850_01	43	11	to	to	IN
homer-odyssey-850_01	43	12	Ithaca	ithaca	NNP
homer-odyssey-850_01	43	13	they	-PRON-	PRP
homer-odyssey-850_01	43	14	would	would	MD
homer-odyssey-850_01	43	15	pray	pray	VB
homer-odyssey-850_01	43	16	for	for	IN
homer-odyssey-850_01	43	17	longer	long	JJR
homer-odyssey-850_01	43	18	legs	leg	NNS
homer-odyssey-850_01	43	19	rather	rather	RB
homer-odyssey-850_01	43	20	than	than	IN
homer-odyssey-850_01	43	21	a	a	DT
homer-odyssey-850_01	43	22	longer	long	JJR
homer-odyssey-850_01	43	23	purse	purse	NN
homer-odyssey-850_01	43	24	,	,	,
homer-odyssey-850_01	43	25	for	for	IN
homer-odyssey-850_01	43	26	money	money	NN
homer-odyssey-850_01	43	27	would	would	MD
homer-odyssey-850_01	43	28	not	not	RB
homer-odyssey-850_01	43	29	serve	serve	VB
homer-odyssey-850_01	43	30	them	-PRON-	PRP
homer-odyssey-850_01	43	31	;	;	:
homer-odyssey-850_01	43	32	but	but	CC
homer-odyssey-850_01	43	33	he	-PRON-	PRP
homer-odyssey-850_01	43	34	,	,	,
homer-odyssey-850_01	43	35	alas	alas	UH
homer-odyssey-850_01	43	36	,	,	,
homer-odyssey-850_01	43	37	has	have	VBZ
homer-odyssey-850_01	43	38	fallen	fall	VBN
homer-odyssey-850_01	43	39	on	on	IN
homer-odyssey-850_01	43	40	an	an	DT
homer-odyssey-850_01	43	41	ill	ill	JJ
homer-odyssey-850_01	43	42	fate	fate	NN
homer-odyssey-850_01	43	43	,	,	,
homer-odyssey-850_01	43	44	and	and	CC
homer-odyssey-850_01	43	45	even	even	RB
homer-odyssey-850_01	43	46	when	when	WRB
homer-odyssey-850_01	43	47	people	people	NNS
homer-odyssey-850_01	43	48	do	do	VBP
homer-odyssey-850_01	43	49	sometimes	sometimes	RB
homer-odyssey-850_01	43	50	say	say	VB
homer-odyssey-850_01	43	51	that	that	IN
homer-odyssey-850_01	43	52	he	-PRON-	PRP
homer-odyssey-850_01	43	53	is	be	VBZ
homer-odyssey-850_01	43	54	coming	come	VBG
homer-odyssey-850_01	43	55	,	,	,
homer-odyssey-850_01	43	56	we	-PRON-	PRP
homer-odyssey-850_01	43	57	no	no	RB
homer-odyssey-850_01	43	58	longer	longer	RB
homer-odyssey-850_01	43	59	heed	heed	VBP
homer-odyssey-850_01	43	60	them	-PRON-	PRP
homer-odyssey-850_01	43	61	;	;	:
homer-odyssey-850_01	43	62	we	-PRON-	PRP
homer-odyssey-850_01	43	63	shall	shall	MD
homer-odyssey-850_01	43	64	never	never	RB
homer-odyssey-850_01	43	65	see	see	VB
homer-odyssey-850_01	43	66	him	-PRON-	PRP
homer-odyssey-850_01	43	67	again	again	RB
homer-odyssey-850_01	43	68	.	.	.
homer-odyssey-850_01	44	1	And	and	CC
homer-odyssey-850_01	44	2	now	now	RB
homer-odyssey-850_01	44	3	,	,	,
homer-odyssey-850_01	44	4	sir	sir	NN
homer-odyssey-850_01	44	5	,	,	,
homer-odyssey-850_01	44	6	tell	tell	VB
homer-odyssey-850_01	44	7	me	-PRON-	PRP
homer-odyssey-850_01	44	8	and	and	CC
homer-odyssey-850_01	44	9	tell	tell	VB
homer-odyssey-850_01	44	10	me	-PRON-	PRP
homer-odyssey-850_01	44	11	true	true	JJ
homer-odyssey-850_01	44	12	,	,	,
homer-odyssey-850_01	44	13	who	who	WP
homer-odyssey-850_01	44	14	you	-PRON-	PRP
homer-odyssey-850_01	44	15	are	be	VBP
homer-odyssey-850_01	44	16	and	and	CC
homer-odyssey-850_01	44	17	where	where	WRB
homer-odyssey-850_01	44	18	you	-PRON-	PRP
homer-odyssey-850_01	44	19	come	come	VBP
homer-odyssey-850_01	44	20	from	from	IN
homer-odyssey-850_01	44	21	.	.	.
homer-odyssey-850_01	45	1	Tell	tell	VB
homer-odyssey-850_01	45	2	me	-PRON-	PRP
homer-odyssey-850_01	45	3	of	of	IN
homer-odyssey-850_01	45	4	your	-PRON-	PRP$
homer-odyssey-850_01	45	5	town	town	NN
homer-odyssey-850_01	45	6	and	and	CC
homer-odyssey-850_01	45	7	parents	parent	NNS
homer-odyssey-850_01	45	8	,	,	,
homer-odyssey-850_01	45	9	what	what	WDT
homer-odyssey-850_01	45	10	manner	manner	NN
homer-odyssey-850_01	45	11	of	of	IN
homer-odyssey-850_01	45	12	ship	ship	NN
homer-odyssey-850_01	45	13	you	-PRON-	PRP
homer-odyssey-850_01	45	14	came	come	VBD
homer-odyssey-850_01	45	15	in	in	RP
homer-odyssey-850_01	45	16	,	,	,
homer-odyssey-850_01	45	17	how	how	WRB
homer-odyssey-850_01	45	18	your	-PRON-	PRP$
homer-odyssey-850_01	45	19	crew	crew	NN
homer-odyssey-850_01	45	20	brought	bring	VBD
homer-odyssey-850_01	45	21	you	-PRON-	PRP
homer-odyssey-850_01	45	22	to	to	IN
homer-odyssey-850_01	45	23	Ithaca	ithaca	NNP
homer-odyssey-850_01	45	24	,	,	,
homer-odyssey-850_01	45	25	and	and	CC
homer-odyssey-850_01	45	26	of	of	IN
homer-odyssey-850_01	45	27	what	what	WP
homer-odyssey-850_01	45	28	nation	nation	NN
homer-odyssey-850_01	45	29	they	-PRON-	PRP
homer-odyssey-850_01	45	30	declared	declare	VBD
homer-odyssey-850_01	45	31	themselves	-PRON-	PRP
homer-odyssey-850_01	45	32	to	to	IN
homer-odyssey-850_01	45	33	be--	be--	NN
homer-odyssey-850_01	45	34	for	for	IN
homer-odyssey-850_01	45	35	you	-PRON-	PRP
homer-odyssey-850_01	45	36	can	can	MD
homer-odyssey-850_01	45	37	not	not	RB
homer-odyssey-850_01	45	38	have	have	VB
homer-odyssey-850_01	45	39	come	come	VBN
homer-odyssey-850_01	45	40	by	by	IN
homer-odyssey-850_01	45	41	land	land	NN
homer-odyssey-850_01	45	42	.	.	.
homer-odyssey-850_01	46	1	Tell	tell	VB
homer-odyssey-850_01	46	2	me	-PRON-	PRP
homer-odyssey-850_01	46	3	also	also	RB
homer-odyssey-850_01	46	4	truly	truly	RB
homer-odyssey-850_01	46	5	,	,	,
homer-odyssey-850_01	46	6	for	for	IN
homer-odyssey-850_01	46	7	I	-PRON-	PRP
homer-odyssey-850_01	46	8	want	want	VBP
homer-odyssey-850_01	46	9	to	to	TO
homer-odyssey-850_01	46	10	know	know	VB
homer-odyssey-850_01	46	11	,	,	,
homer-odyssey-850_01	46	12	are	be	VBP
homer-odyssey-850_01	46	13	you	-PRON-	PRP
homer-odyssey-850_01	46	14	a	a	DT
homer-odyssey-850_01	46	15	stranger	stranger	NN
homer-odyssey-850_01	46	16	to	to	IN
homer-odyssey-850_01	46	17	this	this	DT
homer-odyssey-850_01	46	18	house	house	NN
homer-odyssey-850_01	46	19	,	,	,
homer-odyssey-850_01	46	20	or	or	CC
homer-odyssey-850_01	46	21	have	have	VBP
homer-odyssey-850_01	46	22	you	-PRON-	PRP
homer-odyssey-850_01	46	23	been	be	VBN
homer-odyssey-850_01	46	24	here	here	RB
homer-odyssey-850_01	46	25	in	in	IN
homer-odyssey-850_01	46	26	my	-PRON-	PRP$
homer-odyssey-850_01	46	27	father	father	NN
homer-odyssey-850_01	46	28	's	's	POS
homer-odyssey-850_01	46	29	time	time	NN
homer-odyssey-850_01	46	30	?	?	.
homer-odyssey-850_01	47	1	In	in	IN
homer-odyssey-850_01	47	2	the	the	DT
homer-odyssey-850_01	47	3	old	old	JJ
homer-odyssey-850_01	47	4	days	day	NNS
homer-odyssey-850_01	47	5	we	-PRON-	PRP
homer-odyssey-850_01	47	6	had	have	VBD
homer-odyssey-850_01	47	7	many	many	JJ
homer-odyssey-850_01	47	8	visitors	visitor	NNS
homer-odyssey-850_01	47	9	for	for	IN
homer-odyssey-850_01	47	10	my	-PRON-	PRP$
homer-odyssey-850_01	47	11	father	father	NN
homer-odyssey-850_01	47	12	went	go	VBD
homer-odyssey-850_01	47	13	about	about	RB
homer-odyssey-850_01	47	14	much	much	JJ
homer-odyssey-850_01	47	15	himself	-PRON-	PRP
homer-odyssey-850_01	47	16	.	.	.
homer-odyssey-850_01	47	17	"	"	''
homer-odyssey-850_01	48	1	And	and	CC
homer-odyssey-850_01	48	2	Minerva	minerva	NNP
homer-odyssey-850_01	48	3	answered	answer	VBD
homer-odyssey-850_01	48	4	,	,	,
homer-odyssey-850_01	48	5	"	"	``
homer-odyssey-850_01	48	6	I	-PRON-	PRP
homer-odyssey-850_01	48	7	will	will	MD
homer-odyssey-850_01	48	8	tell	tell	VB
homer-odyssey-850_01	48	9	you	-PRON-	PRP
homer-odyssey-850_01	48	10	truly	truly	RB
homer-odyssey-850_01	48	11	and	and	CC
homer-odyssey-850_01	48	12	particularly	particularly	RB
homer-odyssey-850_01	48	13	all	all	RB
homer-odyssey-850_01	48	14	about	about	IN
homer-odyssey-850_01	48	15	it	-PRON-	PRP
homer-odyssey-850_01	48	16	.	.	.
homer-odyssey-850_01	49	1	I	-PRON-	PRP
homer-odyssey-850_01	49	2	am	be	VBP
homer-odyssey-850_01	49	3	Mentes	mentes	NNPS
homer-odyssey-850_01	49	4	,	,	,
homer-odyssey-850_01	49	5	son	son	NN
homer-odyssey-850_01	49	6	of	of	IN
homer-odyssey-850_01	49	7	Anchialus	anchialus	NNP
homer-odyssey-850_01	49	8	,	,	,
homer-odyssey-850_01	49	9	and	and	CC
homer-odyssey-850_01	49	10	I	-PRON-	PRP
homer-odyssey-850_01	49	11	am	be	VBP
homer-odyssey-850_01	49	12	King	king	NNP
homer-odyssey-850_01	49	13	of	of	IN
homer-odyssey-850_01	49	14	the	the	DT
homer-odyssey-850_01	49	15	Taphians	taphians	NNPS
homer-odyssey-850_01	49	16	.	.	.
homer-odyssey-850_01	50	1	I	-PRON-	PRP
homer-odyssey-850_01	50	2	have	have	VBP
homer-odyssey-850_01	50	3	come	come	VBN
homer-odyssey-850_01	50	4	here	here	RB
homer-odyssey-850_01	50	5	with	with	IN
homer-odyssey-850_01	50	6	my	-PRON-	PRP$
homer-odyssey-850_01	50	7	ship	ship	NN
homer-odyssey-850_01	50	8	and	and	CC
homer-odyssey-850_01	50	9	crew	crew	NN
homer-odyssey-850_01	50	10	,	,	,
homer-odyssey-850_01	50	11	on	on	IN
homer-odyssey-850_01	50	12	a	a	DT
homer-odyssey-850_01	50	13	voyage	voyage	NN
homer-odyssey-850_01	50	14	to	to	IN
homer-odyssey-850_01	50	15	men	man	NNS
homer-odyssey-850_01	50	16	of	of	IN
homer-odyssey-850_01	50	17	a	a	DT
homer-odyssey-850_01	50	18	foreign	foreign	JJ
homer-odyssey-850_01	50	19	tongue	tongue	NN
homer-odyssey-850_01	50	20	being	be	VBG
homer-odyssey-850_01	50	21	bound	bind	VBN
homer-odyssey-850_01	50	22	for	for	IN
homer-odyssey-850_01	50	23	Temesa	temesa	NNP
homer-odyssey-850_01	50	24	{	{	-LRB-
homer-odyssey-850_01	50	25	4	4	CD
homer-odyssey-850_01	50	26	}	}	-RRB-
homer-odyssey-850_01	50	27	with	with	IN
homer-odyssey-850_01	50	28	a	a	DT
homer-odyssey-850_01	50	29	cargo	cargo	NN
homer-odyssey-850_01	50	30	of	of	IN
homer-odyssey-850_01	50	31	iron	iron	NN
homer-odyssey-850_01	50	32	,	,	,
homer-odyssey-850_01	50	33	and	and	CC
homer-odyssey-850_01	50	34	I	-PRON-	PRP
homer-odyssey-850_01	50	35	shall	shall	MD
homer-odyssey-850_01	50	36	bring	bring	VB
homer-odyssey-850_01	50	37	back	back	RB
homer-odyssey-850_01	50	38	copper	copper	NN
homer-odyssey-850_01	50	39	.	.	.
homer-odyssey-850_01	51	1	As	as	IN
homer-odyssey-850_01	51	2	for	for	IN
homer-odyssey-850_01	51	3	my	-PRON-	PRP$
homer-odyssey-850_01	51	4	ship	ship	NN
homer-odyssey-850_01	51	5	,	,	,
homer-odyssey-850_01	51	6	it	-PRON-	PRP
homer-odyssey-850_01	51	7	lies	lie	VBZ
homer-odyssey-850_01	51	8	over	over	IN
homer-odyssey-850_01	51	9	yonder	yonder	NN
homer-odyssey-850_01	51	10	off	off	IN
homer-odyssey-850_01	51	11	the	the	DT
homer-odyssey-850_01	51	12	open	open	JJ
homer-odyssey-850_01	51	13	country	country	NN
homer-odyssey-850_01	51	14	away	away	RB
homer-odyssey-850_01	51	15	from	from	IN
homer-odyssey-850_01	51	16	the	the	DT
homer-odyssey-850_01	51	17	town	town	NN
homer-odyssey-850_01	51	18	,	,	,
homer-odyssey-850_01	51	19	in	in	IN
homer-odyssey-850_01	51	20	the	the	DT
homer-odyssey-850_01	51	21	harbour	harbour	NN
homer-odyssey-850_01	51	22	Rheithron	rheithron	NNP
homer-odyssey-850_01	51	23	{	{	-LRB-
homer-odyssey-850_01	51	24	5	5	CD
homer-odyssey-850_01	51	25	}	}	-RRB-
homer-odyssey-850_01	51	26	under	under	IN
homer-odyssey-850_01	51	27	the	the	DT
homer-odyssey-850_01	51	28	wooded	wooded	JJ
homer-odyssey-850_01	51	29	mountain	mountain	NN
homer-odyssey-850_01	51	30	Neritum	neritum	NNP
homer-odyssey-850_01	51	31	.	.	.
homer-odyssey-850_01	52	1	{	{	-LRB-
homer-odyssey-850_01	52	2	6	6	CD
homer-odyssey-850_01	52	3	}	}	-RRB-
homer-odyssey-850_01	52	4	Our	-PRON-	PRP$
homer-odyssey-850_01	52	5	fathers	father	NNS
homer-odyssey-850_01	52	6	were	be	VBD
homer-odyssey-850_01	52	7	friends	friend	NNS
homer-odyssey-850_01	52	8	before	before	IN
homer-odyssey-850_01	52	9	us	-PRON-	PRP
homer-odyssey-850_01	52	10	,	,	,
homer-odyssey-850_01	52	11	as	as	IN
homer-odyssey-850_01	52	12	old	old	JJ
homer-odyssey-850_01	52	13	Laertes	laertes	NNPS
homer-odyssey-850_01	52	14	will	will	MD
homer-odyssey-850_01	52	15	tell	tell	VB
homer-odyssey-850_01	52	16	you	-PRON-	PRP
homer-odyssey-850_01	52	17	,	,	,
homer-odyssey-850_01	52	18	if	if	IN
homer-odyssey-850_01	52	19	you	-PRON-	PRP
homer-odyssey-850_01	52	20	will	will	MD
homer-odyssey-850_01	52	21	go	go	VB
homer-odyssey-850_01	52	22	and	and	CC
homer-odyssey-850_01	52	23	ask	ask	VB
homer-odyssey-850_01	52	24	him	-PRON-	PRP
homer-odyssey-850_01	52	25	.	.	.
homer-odyssey-850_01	53	1	They	-PRON-	PRP
homer-odyssey-850_01	53	2	say	say	VBP
homer-odyssey-850_01	53	3	,	,	,
homer-odyssey-850_01	53	4	however	however	RB
homer-odyssey-850_01	53	5	,	,	,
homer-odyssey-850_01	53	6	that	that	IN
homer-odyssey-850_01	53	7	he	-PRON-	PRP
homer-odyssey-850_01	53	8	never	never	RB
homer-odyssey-850_01	53	9	comes	come	VBZ
homer-odyssey-850_01	53	10	to	to	IN
homer-odyssey-850_01	53	11	town	town	NN
homer-odyssey-850_01	53	12	now	now	RB
homer-odyssey-850_01	53	13	,	,	,
homer-odyssey-850_01	53	14	and	and	CC
homer-odyssey-850_01	53	15	lives	live	VBZ
homer-odyssey-850_01	53	16	by	by	IN
homer-odyssey-850_01	53	17	himself	-PRON-	PRP
homer-odyssey-850_01	53	18	in	in	IN
homer-odyssey-850_01	53	19	the	the	DT
homer-odyssey-850_01	53	20	country	country	NN
homer-odyssey-850_01	53	21	,	,	,
homer-odyssey-850_01	53	22	faring	fare	VBG
homer-odyssey-850_01	53	23	hardly	hardly	RB
homer-odyssey-850_01	53	24	,	,	,
homer-odyssey-850_01	53	25	with	with	IN
homer-odyssey-850_01	53	26	an	an	DT
homer-odyssey-850_01	53	27	old	old	JJ
homer-odyssey-850_01	53	28	woman	woman	NN
[...]
homer-odyssey-850_01	116	39	no	no	DT
homer-odyssey-850_01	116	40	one	one	NN
homer-odyssey-850_01	116	41	while	while	IN
homer-odyssey-850_01	116	42	there	there	EX
homer-odyssey-850_01	116	43	is	be	VBZ
homer-odyssey-850_01	116	44	a	a	DT
homer-odyssey-850_01	116	45	man	man	NN
homer-odyssey-850_01	116	46	in	in	IN
homer-odyssey-850_01	116	47	Ithaca	ithaca	NNP
homer-odyssey-850_01	116	48	shall	shall	MD
homer-odyssey-850_01	116	49	do	do	VB
homer-odyssey-850_01	116	50	you	-PRON-	PRP
homer-odyssey-850_01	116	51	violence	violence	NN
homer-odyssey-850_01	116	52	nor	nor	CC
homer-odyssey-850_01	116	53	rob	rob	IN
homer-odyssey-850_01	116	54	you	-PRON-	PRP
homer-odyssey-850_01	116	55	.	.	.
homer-odyssey-850_01	117	1	And	and	CC
homer-odyssey-850_01	117	2	now	now	RB
homer-odyssey-850_01	117	3	,	,	,
homer-odyssey-850_01	117	4	my	-PRON-	PRP$
homer-odyssey-850_01	117	5	good	good	JJ
homer-odyssey-850_01	117	6	fellow	fellow	NN
homer-odyssey-850_01	117	7	,	,	,
homer-odyssey-850_01	117	8	I	-PRON-	PRP
homer-odyssey-850_01	117	9	want	want	VBP
homer-odyssey-850_01	117	10	to	to	TO
homer-odyssey-850_01	117	11	know	know	VB
homer-odyssey-850_01	117	12	about	about	IN
homer-odyssey-850_01	117	13	this	this	DT
homer-odyssey-850_01	117	14	stranger	stranger	NN
homer-odyssey-850_01	117	15	.	.	.
homer-odyssey-850_01	118	1	What	what	WDT
homer-odyssey-850_01	118	2	country	country	NN
homer-odyssey-850_01	118	3	does	do	VBZ
homer-odyssey-850_01	118	4	he	-PRON-	PRP
homer-odyssey-850_01	118	5	come	come	VB
homer-odyssey-850_01	118	6	from	from	IN
homer-odyssey-850_01	118	7	?	?	.
homer-odyssey-850_01	119	1	Of	of	IN
homer-odyssey-850_01	119	2	what	what	WDT
homer-odyssey-850_01	119	3	family	family	NN
homer-odyssey-850_01	119	4	is	be	VBZ
homer-odyssey-850_01	119	5	he	-PRON-	PRP
homer-odyssey-850_01	119	6	,	,	,
homer-odyssey-850_01	119	7	and	and	CC
homer-odyssey-850_01	119	8	where	where	WRB
homer-odyssey-850_01	119	9	is	be	VBZ
homer-odyssey-850_01	119	10	his	-PRON-	PRP$
homer-odyssey-850_01	119	11	estate	estate	NN
homer-odyssey-850_01	119	12	?	?	.
homer-odyssey-850_01	120	1	Has	have	VBZ
homer-odyssey-850_01	120	2	he	-PRON-	PRP
homer-odyssey-850_01	120	3	brought	bring	VBN
homer-odyssey-850_01	120	4	you	-PRON-	PRP
homer-odyssey-850_01	120	5	news	news	NN
homer-odyssey-850_01	120	6	about	about	IN
homer-odyssey-850_01	120	7	the	the	DT
homer-odyssey-850_01	120	8	return	return	NN
homer-odyssey-850_01	120	9	of	of	IN
homer-odyssey-850_01	120	10	your	-PRON-	PRP$
homer-odyssey-850_01	120	11	father	father	NN
homer-odyssey-850_01	120	12	,	,	,
homer-odyssey-850_01	120	13	or	or	CC
homer-odyssey-850_01	120	14	was	be	VBD
homer-odyssey-850_01	120	15	he	-PRON-	PRP
homer-odyssey-850_01	120	16	on	on	IN
homer-odyssey-850_01	120	17	business	business	NN
homer-odyssey-850_01	120	18	of	of	IN
homer-odyssey-850_01	120	19	his	-PRON-	PRP$
homer-odyssey-850_01	120	20	own	own	JJ
homer-odyssey-850_01	120	21	?	?	.
homer-odyssey-850_01	121	1	He	-PRON-	PRP
homer-odyssey-850_01	121	2	seemed	seem	VBD
homer-odyssey-850_01	121	3	a	a	DT
homer-odyssey-850_01	121	4	well	well	NN
homer-odyssey-850_01	121	5	to	to	TO
homer-odyssey-850_01	121	6	do	do	VB
homer-odyssey-850_01	121	7	man	man	NN
homer-odyssey-850_01	121	8	,	,	,
homer-odyssey-850_01	121	9	but	but	CC
homer-odyssey-850_01	121	10	he	-PRON-	PRP
homer-odyssey-850_01	121	11	hurried	hurry	VBD
homer-odyssey-850_01	121	12	off	off	RP
homer-odyssey-850_01	121	13	so	so	RB
homer-odyssey-850_01	121	14	suddenly	suddenly	RB
homer-odyssey-850_01	121	15	that	that	IN
homer-odyssey-850_01	121	16	he	-PRON-	PRP
homer-odyssey-850_01	121	17	was	be	VBD
homer-odyssey-850_01	121	18	gone	go	VBN
homer-odyssey-850_01	121	19	in	in	IN
homer-odyssey-850_01	121	20	a	a	DT
homer-odyssey-850_01	121	21	moment	moment	NN
homer-odyssey-850_01	121	22	before	before	IN
homer-odyssey-850_01	121	23	we	-PRON-	PRP
homer-odyssey-850_01	121	24	could	could	MD
homer-odyssey-850_01	121	25	get	get	VB
homer-odyssey-850_01	121	26	to	to	TO
homer-odyssey-850_01	121	27	know	know	VB
homer-odyssey-850_01	121	28	him	-PRON-	PRP
homer-odyssey-850_01	121	29	.	.	.
homer-odyssey-850_01	121	30	"	"	''
homer-odyssey-850_01	122	1	"	"	``
homer-odyssey-850_01	122	2	My	-PRON-	PRP$
homer-odyssey-850_01	122	3	father	father	NN
homer-odyssey-850_01	122	4	is	be	VBZ
homer-odyssey-850_01	122	5	dead	dead	JJ
homer-odyssey-850_01	122	6	and	and	CC
homer-odyssey-850_01	122	7	gone	go	VBN
homer-odyssey-850_01	122	8	,	,	,
homer-odyssey-850_01	122	9	"	"	''
homer-odyssey-850_01	122	10	answered	answer	VBN
homer-odyssey-850_01	122	11	Telemachus	telemachus	NN
homer-odyssey-850_01	122	12	,	,	,
homer-odyssey-850_01	122	13	"	"	''
homer-odyssey-850_01	122	14	and	and	CC
homer-odyssey-850_01	122	15	even	even	RB
homer-odyssey-850_01	122	16	if	if	IN
homer-odyssey-850_01	122	17	some	some	DT
homer-odyssey-850_01	122	18	rumour	rumour	NN
homer-odyssey-850_01	122	19	reaches	reach	VBZ
homer-odyssey-850_01	122	20	me	-PRON-	PRP
homer-odyssey-850_01	122	21	I	-PRON-	PRP
homer-odyssey-850_01	122	22	put	put	VBD
homer-odyssey-850_01	122	23	no	no	DT
homer-odyssey-850_01	122	24	more	more	JJR
homer-odyssey-850_01	122	25	faith	faith	NN
homer-odyssey-850_01	122	26	in	in	IN
homer-odyssey-850_01	122	27	it	-PRON-	PRP
homer-odyssey-850_01	122	28	now	now	RB
homer-odyssey-850_01	122	29	.	.	.
homer-odyssey-850_01	123	1	My	-PRON-	PRP$
homer-odyssey-850_01	123	2	mother	mother	NN
homer-odyssey-850_01	123	3	does	do	VBZ
homer-odyssey-850_01	123	4	indeed	indeed	RB
homer-odyssey-850_01	123	5	sometimes	sometimes	RB
homer-odyssey-850_01	123	6	send	send	VB
homer-odyssey-850_01	123	7	for	for	IN
homer-odyssey-850_01	123	8	a	a	DT
homer-odyssey-850_01	123	9	soothsayer	soothsayer	NN
homer-odyssey-850_01	123	10	and	and	CC
homer-odyssey-850_01	123	11	question	question	VB
homer-odyssey-850_01	123	12	him	-PRON-	PRP
homer-odyssey-850_01	123	13	,	,	,
homer-odyssey-850_01	123	14	but	but	CC
homer-odyssey-850_01	123	15	I	-PRON-	PRP
homer-odyssey-850_01	123	16	give	give	VBP
homer-odyssey-850_01	123	17	his	-PRON-	PRP$
homer-odyssey-850_01	123	18	prophecyings	prophecying	NNS
homer-odyssey-850_01	123	19	no	no	DT
homer-odyssey-850_01	123	20	heed	heed	NN
homer-odyssey-850_01	123	21	.	.	.
homer-odyssey-850_01	124	1	As	as	IN
homer-odyssey-850_01	124	2	for	for	IN
homer-odyssey-850_01	124	3	the	the	DT
homer-odyssey-850_01	124	4	stranger	stranger	NN
homer-odyssey-850_01	124	5	,	,	,
homer-odyssey-850_01	124	6	he	-PRON-	PRP
homer-odyssey-850_01	124	7	was	be	VBD
homer-odyssey-850_01	124	8	Mentes	mentes	NNPS
homer-odyssey-850_01	124	9	,	,	,
homer-odyssey-850_01	124	10	son	son	NN
homer-odyssey-850_01	124	11	of	of	IN
homer-odyssey-850_01	124	12	Anchialus	anchialus	NNP
homer-odyssey-850_01	124	13	,	,	,
homer-odyssey-850_01	124	14	chief	chief	NN
homer-odyssey-850_01	124	15	of	of	IN
homer-odyssey-850_01	124	16	the	the	DT
homer-odyssey-850_01	124	17	Taphians	taphians	NNPS
homer-odyssey-850_01	124	18	,	,	,
homer-odyssey-850_01	124	19	an	an	DT
homer-odyssey-850_01	124	20	old	old	JJ
homer-odyssey-850_01	124	21	friend	friend	NN
homer-odyssey-850_01	124	22	of	of	IN
homer-odyssey-850_01	124	23	my	-PRON-	PRP$
homer-odyssey-850_01	124	24	father	father	NN
homer-odyssey-850_01	124	25	'	'	''
homer-odyssey-850_01	124	26	s.	s.	NN
homer-odyssey-850_01	124	27	"	"	''
homer-odyssey-850_01	125	1	But	but	CC
homer-odyssey-850_01	125	2	in	in	IN
homer-odyssey-850_01	125	3	his	-PRON-	PRP$
homer-odyssey-850_01	125	4	heart	heart	NN
homer-odyssey-850_01	125	5	he	-PRON-	PRP
homer-odyssey-850_01	125	6	knew	know	VBD
homer-odyssey-850_01	125	7	that	that	IN
homer-odyssey-850_01	125	8	it	-PRON-	PRP
homer-odyssey-850_01	125	9	had	have	VBD
homer-odyssey-850_01	125	10	been	be	VBN
homer-odyssey-850_01	125	11	the	the	DT
homer-odyssey-850_01	125	12	goddess	goddess	NN
homer-odyssey-850_01	125	13	.	.	.
homer-odyssey-850_01	126	1	The	the	DT
homer-odyssey-850_01	126	2	suitors	suitor	NNS
homer-odyssey-850_01	126	3	then	then	RB
homer-odyssey-850_01	126	4	returned	return	VBD
homer-odyssey-850_01	126	5	to	to	IN
homer-odyssey-850_01	126	6	their	-PRON-	PRP$
homer-odyssey-850_01	126	7	singing	singing	NN
homer-odyssey-850_01	126	8	and	and	CC
homer-odyssey-850_01	126	9	dancing	dance	VBG
homer-odyssey-850_01	126	10	until	until	IN
homer-odyssey-850_01	126	11	the	the	DT
homer-odyssey-850_01	126	12	evening	evening	NN
homer-odyssey-850_01	126	13	;	;	:
homer-odyssey-850_01	126	14	but	but	CC
homer-odyssey-850_01	126	15	when	when	WRB
homer-odyssey-850_01	126	16	night	night	NN
homer-odyssey-850_01	126	17	fell	fall	VBD
homer-odyssey-850_01	126	18	upon	upon	IN
homer-odyssey-850_01	126	19	their	-PRON-	PRP$
homer-odyssey-850_01	126	20	pleasuring	pleasuring	NN
homer-odyssey-850_01	126	21	they	-PRON-	PRP
homer-odyssey-850_01	126	22	went	go	VBD
homer-odyssey-850_01	126	23	home	home	RB
homer-odyssey-850_01	126	24	to	to	IN
homer-odyssey-850_01	126	25	bed	bed	NN
homer-odyssey-850_01	126	26	each	each	DT
homer-odyssey-850_01	126	27	in	in	IN
homer-odyssey-850_01	126	28	his	-PRON-	PRP$
homer-odyssey-850_01	126	29	own	own	JJ
homer-odyssey-850_01	126	30	abode	abode	NN
homer-odyssey-850_01	126	31	.	.	.
homer-odyssey-850_01	127	1	{	{	-LRB-
homer-odyssey-850_01	127	2	12	12	CD
homer-odyssey-850_01	127	3	}	}	-RRB-
homer-odyssey-850_01	127	4	Telemachus	telemachus	NNP
homer-odyssey-850_01	127	5	's	's	POS
homer-odyssey-850_01	127	6	room	room	NN
homer-odyssey-850_01	127	7	was	be	VBD
homer-odyssey-850_01	127	8	high	high	JJ
homer-odyssey-850_01	127	9	up	up	RP
homer-odyssey-850_01	127	10	in	in	IN
homer-odyssey-850_01	127	11	a	a	DT
homer-odyssey-850_01	127	12	tower	tower	NN
homer-odyssey-850_01	127	13	{	{	-LRB-
homer-odyssey-850_01	127	14	13	13	CD
homer-odyssey-850_01	127	15	}	}	-RRB-
homer-odyssey-850_01	127	16	that	that	WDT
homer-odyssey-850_01	127	17	looked	look	VBD
homer-odyssey-850_01	127	18	on	on	RP
homer-odyssey-850_01	127	19	to	to	IN
homer-odyssey-850_01	127	20	the	the	DT
homer-odyssey-850_01	127	21	outer	outer	JJ
homer-odyssey-850_01	127	22	court	court	NN
homer-odyssey-850_01	127	23	;	;	:
homer-odyssey-850_01	127	24	hither	hither	NN
homer-odyssey-850_01	127	25	,	,	,
homer-odyssey-850_01	127	26	then	then	RB
homer-odyssey-850_01	127	27	,	,	,
homer-odyssey-850_01	127	28	he	-PRON-	PRP
homer-odyssey-850_01	127	29	hied	hie	VBD
homer-odyssey-850_01	127	30	,	,	,
homer-odyssey-850_01	127	31	brooding	brood	VBG
homer-odyssey-850_01	127	32	and	and	CC
homer-odyssey-850_01	127	33	full	full	JJ
homer-odyssey-850_01	127	34	of	of	IN
homer-odyssey-850_01	127	35	thought	thought	NN
homer-odyssey-850_01	127	36	.	.	.
homer-odyssey-850_01	128	1	A	a	DT
homer-odyssey-850_01	128	2	good	good	JJ
homer-odyssey-850_01	128	3	old	old	JJ
homer-odyssey-850_01	128	4	woman	woman	NN
homer-odyssey-850_01	128	5	,	,	,
homer-odyssey-850_01	128	6	Euryclea	euryclea	NNP
homer-odyssey-850_01	128	7	,	,	,
homer-odyssey-850_01	128	8	daughter	daughter	NN
homer-odyssey-850_01	128	9	of	of	IN
homer-odyssey-850_01	128	10	Ops	ops	NNP
homer-odyssey-850_01	128	11	,	,	,
homer-odyssey-850_01	128	12	the	the	DT
homer-odyssey-850_01	128	13	son	son	NN
homer-odyssey-850_01	128	14	of	of	IN
homer-odyssey-850_01	128	15	Pisenor	pisenor	NNP
homer-odyssey-850_01	128	16	,	,	,
homer-odyssey-850_01	128	17	went	go	VBD
homer-odyssey-850_01	128	18	before	before	IN
homer-odyssey-850_01	128	19	him	-PRON-	PRP
homer-odyssey-850_01	128	20	with	with	IN
homer-odyssey-850_01	128	21	a	a	DT
homer-odyssey-850_01	128	22	couple	couple	NN
homer-odyssey-850_01	128	23	of	of	IN
homer-odyssey-850_01	128	24	blazing	blazing	NN
homer-odyssey-850_01	128	25	torches	torch	NNS
homer-odyssey-850_01	128	26	.	.	.
homer-odyssey-850_01	129	1	Laertes	laerte	NNS
homer-odyssey-850_01	129	2	had	have	VBD
homer-odyssey-850_01	129	3	bought	buy	VBN
homer-odyssey-850_01	129	4	her	-PRON-	PRP
homer-odyssey-850_01	129	5	with	with	IN
homer-odyssey-850_01	129	6	his	-PRON-	PRP$
homer-odyssey-850_01	129	7	own	own	JJ
homer-odyssey-850_01	129	8	money	money	NN
homer-odyssey-850_01	129	9	when	when	WRB
homer-odyssey-850_01	129	10	she	-PRON-	PRP
homer-odyssey-850_01	129	11	was	be	VBD
homer-odyssey-850_01	129	12	quite	quite	RB
homer-odyssey-850_01	129	13	young	young	JJ
homer-odyssey-850_01	129	14	;	;	:
homer-odyssey-850_01	129	15	he	-PRON-	PRP
homer-odyssey-850_01	129	16	gave	give	VBD
homer-odyssey-850_01	129	17	the	the	DT
homer-odyssey-850_01	129	18	worth	worth	NN
homer-odyssey-850_01	129	19	of	of	IN
homer-odyssey-850_01	129	20	twenty	twenty	CD
homer-odyssey-850_01	129	21	oxen	oxen	NN
homer-odyssey-850_01	129	22	for	for	IN
homer-odyssey-850_01	129	23	her	-PRON-	PRP
homer-odyssey-850_01	129	24	,	,	,
homer-odyssey-850_01	129	25	and	and	CC
homer-odyssey-850_01	129	26	shewed	shew	VBD
homer-odyssey-850_01	129	27	as	as	RB
homer-odyssey-850_01	129	28	much	much	JJ
homer-odyssey-850_01	129	29	respect	respect	NN
homer-odyssey-850_01	129	30	to	to	IN
homer-odyssey-850_01	129	31	her	-PRON-	PRP
homer-odyssey-850_01	129	32	in	in	IN
homer-odyssey-850_01	129	33	his	-PRON-	PRP$
homer-odyssey-850_01	129	34	household	household	NN
homer-odyssey-850_01	129	35	as	as	IN
homer-odyssey-850_01	129	36	he	-PRON-	PRP
homer-odyssey-850_01	129	37	did	do	VBD
homer-odyssey-850_01	129	38	to	to	IN
homer-odyssey-850_01	129	39	his	-PRON-	PRP$
homer-odyssey-850_01	129	40	own	own	JJ
homer-odyssey-850_01	129	41	wedded	wed	VBN
homer-odyssey-850_01	129	42	wife	wife	NN
homer-odyssey-850_01	129	43	,	,	,
homer-odyssey-850_01	129	44	but	but	CC
homer-odyssey-850_01	129	45	he	-PRON-	PRP
homer-odyssey-850_01	129	46	did	do	VBD
homer-odyssey-850_01	129	47	not	not	RB
homer-odyssey-850_01	129	48	take	take	VB
homer-odyssey-850_01	129	49	her	-PRON-	PRP
homer-odyssey-850_01	129	50	to	to	IN
homer-odyssey-850_01	129	51	his	-PRON-	PRP$
homer-odyssey-850_01	129	52	bed	bed	NN
homer-odyssey-850_01	129	53	for	for	IN
homer-odyssey-850_01	129	54	he	-PRON-	PRP
homer-odyssey-850_01	129	55	feared	fear	VBD
homer-odyssey-850_01	129	56	his	-PRON-	PRP$
homer-odyssey-850_01	129	57	wife	wife	NN
homer-odyssey-850_01	129	58	's	's	POS
homer-odyssey-850_01	129	59	resentment	resentment	NN
homer-odyssey-850_01	129	60	.	.	.
homer-odyssey-850_01	130	1	{	{	-LRB-
homer-odyssey-850_01	130	2	14	14	CD
homer-odyssey-850_01	130	3	}	}	-RRB-
homer-odyssey-850_01	130	4	She	-PRON-	PRP
homer-odyssey-850_01	130	5	it	-PRON-	PRP
homer-odyssey-850_01	130	6	was	be	VBD
homer-odyssey-850_01	130	7	who	who	WP
homer-odyssey-850_01	130	8	now	now	RB
homer-odyssey-850_01	130	9	lighted	light	VBD
homer-odyssey-850_01	130	10	Telemachus	telemachus	NNP
homer-odyssey-850_01	130	11	to	to	IN
homer-odyssey-850_01	130	12	his	-PRON-	PRP$
homer-odyssey-850_01	130	13	room	room	NN
homer-odyssey-850_01	130	14	,	,	,
homer-odyssey-850_01	130	15	and	and	CC
homer-odyssey-850_01	130	16	she	-PRON-	PRP
homer-odyssey-850_01	130	17	loved	love	VBD
homer-odyssey-850_01	130	18	him	-PRON-	PRP
homer-odyssey-850_01	130	19	better	better	RBR
homer-odyssey-850_01	130	20	than	than	IN
homer-odyssey-850_01	130	21	any	any	DT
homer-odyssey-850_01	130	22	of	of	IN
homer-odyssey-850_01	130	23	the	the	DT
homer-odyssey-850_01	130	24	other	other	JJ
homer-odyssey-850_01	130	25	women	woman	NNS
homer-odyssey-850_01	130	26	in	in	IN
homer-odyssey-850_01	130	27	the	the	DT
homer-odyssey-850_01	130	28	house	house	NN
homer-odyssey-850_01	130	29	did	do	VBD
homer-odyssey-850_01	130	30	,	,	,
homer-odyssey-850_01	130	31	for	for	IN
homer-odyssey-850_01	130	32	she	-PRON-	PRP
homer-odyssey-850_01	130	33	had	have	VBD
homer-odyssey-850_01	130	34	nursed	nurse	VBN
homer-odyssey-850_01	130	35	him	-PRON-	PRP
homer-odyssey-850_01	130	36	when	when	WRB
homer-odyssey-850_01	130	37	he	-PRON-	PRP
homer-odyssey-850_01	130	38	was	be	VBD
homer-odyssey-850_01	130	39	a	a	DT
homer-odyssey-850_01	130	40	baby	baby	NN
homer-odyssey-850_01	130	41	.	.	.
homer-odyssey-850_01	131	1	He	-PRON-	PRP
homer-odyssey-850_01	131	2	opened	open	VBD
homer-odyssey-850_01	131	3	the	the	DT
homer-odyssey-850_01	131	4	door	door	NN
homer-odyssey-850_01	131	5	of	of	IN
homer-odyssey-850_01	131	6	his	-PRON-	PRP$
homer-odyssey-850_01	131	7	bed	bed	NN
homer-odyssey-850_01	131	8	room	room	NN
homer-odyssey-850_01	131	9	and	and	CC
homer-odyssey-850_01	131	10	sat	sit	VBD
homer-odyssey-850_01	131	11	down	down	RP
homer-odyssey-850_01	131	12	upon	upon	IN
homer-odyssey-850_01	131	13	the	the	DT
homer-odyssey-850_01	131	14	bed	bed	NN
homer-odyssey-850_01	131	15	;	;	:
homer-odyssey-850_01	131	16	as	as	IN
homer-odyssey-850_01	131	17	he	-PRON-	PRP
homer-odyssey-850_01	131	18	took	take	VBD
homer-odyssey-850_01	131	19	off	off	RP
homer-odyssey-850_01	131	20	his	-PRON-	PRP$
homer-odyssey-850_01	131	21	shirt	shirt	NN
homer-odyssey-850_01	131	22	{	{	-LRB-
homer-odyssey-850_01	131	23	15	15	CD
homer-odyssey-850_01	131	24	}	}	-RRB-
homer-odyssey-850_01	131	25	he	-PRON-	PRP
homer-odyssey-850_01	131	26	gave	give	VBD
homer-odyssey-850_01	131	27	it	-PRON-	PRP
homer-odyssey-850_01	131	28	to	to	IN
homer-odyssey-850_01	131	29	the	the	DT
homer-odyssey-850_01	131	30	good	good	JJ
homer-odyssey-850_01	131	31	old	old	JJ
homer-odyssey-850_01	131	32	woman	woman	NN
homer-odyssey-850_01	131	33	,	,	,
homer-odyssey-850_01	131	34	who	who	WP
homer-odyssey-850_01	131	35	folded	fold	VBD
homer-odyssey-850_01	131	36	it	-PRON-	PRP
homer-odyssey-850_01	131	37	tidily	tidily	RB
homer-odyssey-850_01	131	38	up	up	RP
homer-odyssey-850_01	131	39	,	,	,
homer-odyssey-850_01	131	40	and	and	CC
homer-odyssey-850_01	131	41	hung	hang	VBD
homer-odyssey-850_01	131	42	it	-PRON-	PRP
homer-odyssey-850_01	131	43	for	for	IN
homer-odyssey-850_01	131	44	him	-PRON-	PRP
homer-odyssey-850_01	131	45	over	over	IN
homer-odyssey-850_01	131	46	a	a	DT
homer-odyssey-850_01	131	47	peg	peg	NN
homer-odyssey-850_01	131	48	by	by	IN
homer-odyssey-850_01	131	49	his	-PRON-	PRP$
homer-odyssey-850_01	131	50	bed	bed	NN
homer-odyssey-850_01	131	51	side	side	NN
homer-odyssey-850_01	131	52	,	,	,
homer-odyssey-850_01	131	53	after	after	IN
homer-odyssey-850_01	131	54	which	which	WDT
homer-odyssey-850_01	131	55	she	-PRON-	PRP
homer-odyssey-850_01	131	56	went	go	VBD
homer-odyssey-850_01	131	57	out	out	RP
homer-odyssey-850_01	131	58	,	,	,
homer-odyssey-850_01	131	59	pulled	pull	VBD
homer-odyssey-850_01	131	60	the	the	DT
homer-odyssey-850_01	131	61	door	door	NN
homer-odyssey-850_01	131	62	to	to	IN
homer-odyssey-850_01	131	63	by	by	IN
homer-odyssey-850_01	131	64	a	a	DT
homer-odyssey-850_01	131	65	silver	silver	JJ
homer-odyssey-850_01	131	66	catch	catch	NN
homer-odyssey-850_01	131	67	,	,	,
homer-odyssey-850_01	131	68	and	and	CC
homer-odyssey-850_01	131	69	drew	draw	VBD
homer-odyssey-850_01	131	70	the	the	DT
homer-odyssey-850_01	131	71	bolt	bolt	NN
homer-odyssey-850_01	131	72	home	home	RB
homer-odyssey-850_01	131	73	by	by	IN
homer-odyssey-850_01	131	74	means	mean	NNS
homer-odyssey-850_01	131	75	of	of	IN
homer-odyssey-850_01	131	76	the	the	DT
homer-odyssey-850_01	131	77	strap	strap	NN
homer-odyssey-850_01	131	78	.	.	.
homer-odyssey-850_01	132	1	{	{	-LRB-
homer-odyssey-850_01	132	2	16	16	CD
homer-odyssey-850_01	132	3	}	}	-RRB-
homer-odyssey-850_01	132	4	But	but	CC
homer-odyssey-850_01	132	5	Telemachus	telemachus	NNP
homer-odyssey-850_01	132	6	as	as	IN
homer-odyssey-850_01	132	7	he	-PRON-	PRP
homer-odyssey-850_01	132	8	lay	lie	VBD
homer-odyssey-850_01	132	9	covered	cover	VBN
homer-odyssey-850_01	132	10	with	with	IN
homer-odyssey-850_01	132	11	a	a	DT
homer-odyssey-850_01	132	12	woollen	woollen	JJ
homer-odyssey-850_01	132	13	fleece	fleece	NN
homer-odyssey-850_01	132	14	kept	keep	VBD
homer-odyssey-850_01	132	15	thinking	think	VBG
homer-odyssey-850_01	132	16	all	all	DT
homer-odyssey-850_01	132	17	night	night	NN
homer-odyssey-850_01	132	18	through	through	IN
homer-odyssey-850_01	132	19	of	of	IN
homer-odyssey-850_01	132	20	his	-PRON-	PRP$
homer-odyssey-850_01	132	21	intended	intend	VBN
homer-odyssey-850_01	132	22	voyage	voyage	NN
homer-odyssey-850_01	132	23	and	and	CC
homer-odyssey-850_01	132	24	of	of	IN
homer-odyssey-850_01	132	25	the	the	DT
homer-odyssey-850_01	132	26	counsel	counsel	NN
homer-odyssey-850_01	132	27	that	that	IN
homer-odyssey-850_01	132	28	Minerva	minerva	NNP
homer-odyssey-850_01	132	29	had	have	VBD
homer-odyssey-850_01	132	30	given	give	VBN
homer-odyssey-850_01	132	31	him	-PRON-	PRP
homer-odyssey-850_01	132	32	.	.	.
