id	sid	tid	token	lemma	pos
homer-odyssey-850_04	1	1	THE	the	DT
homer-odyssey-850_04	1	2	VISIT	visit	NN
homer-odyssey-850_04	1	3	TO	to	IN
homer-odyssey-850_04	1	4	KING	king	NNP
homer-odyssey-850_04	1	5	MENELAUS	menelaus	NNP
homer-odyssey-850_04	1	6	,	,	,
homer-odyssey-850_04	1	7	WHO	who	WP
homer-odyssey-850_04	1	8	TELLS	tell	VBZ
homer-odyssey-850_04	1	9	HIS	his	PRP$
homer-odyssey-850_04	1	10	STORY	story	NN
homer-odyssey-850_04	1	11	--	--	:
homer-odyssey-850_04	1	12	MEANWHILE	meanwhile	NNP
homer-odyssey-850_04	1	13	THE	the	DT
homer-odyssey-850_04	1	14	SUITORS	suitors	NNP
homer-odyssey-850_04	1	15	IN	in	IN
homer-odyssey-850_04	1	16	ITHACA	ithaca	NN
homer-odyssey-850_04	1	17	PLOT	plot	NNP
homer-odyssey-850_04	1	18	AGAINST	against	NNP
homer-odyssey-850_04	1	19	TELEMACHUS	telemachus	NN
homer-odyssey-850_04	1	20	.	.	.
homer-odyssey-850_04	2	1	they	-PRON-	PRP
homer-odyssey-850_04	2	2	reached	reach	VBD
homer-odyssey-850_04	2	3	the	the	DT
homer-odyssey-850_04	2	4	low	low	JJ
homer-odyssey-850_04	2	5	lying	lie	VBG
homer-odyssey-850_04	2	6	city	city	NN
homer-odyssey-850_04	2	7	of	of	IN
homer-odyssey-850_04	2	8	Lacedaemon	lacedaemon	NNP
homer-odyssey-850_04	2	9	,	,	,
homer-odyssey-850_04	2	10	where	where	WRB
homer-odyssey-850_04	2	11	they	-PRON-	PRP
homer-odyssey-850_04	2	12	drove	drive	VBD
homer-odyssey-850_04	2	13	straight	straight	RB
homer-odyssey-850_04	2	14	to	to	IN
homer-odyssey-850_04	2	15	the	the	DT
homer-odyssey-850_04	2	16	abode	abode	NN
homer-odyssey-850_04	2	17	of	of	IN
homer-odyssey-850_04	2	18	Menelaus	menelaus	NNP
homer-odyssey-850_04	2	19	{	{	-LRB-
homer-odyssey-850_04	2	20	36	36	CD
homer-odyssey-850_04	2	21	}	}	-RRB-
homer-odyssey-850_04	2	22	[	[	-LRB-
homer-odyssey-850_04	2	23	and	and	CC
homer-odyssey-850_04	2	24	found	find	VBD
homer-odyssey-850_04	2	25	him	-PRON-	PRP
homer-odyssey-850_04	2	26	in	in	IN
homer-odyssey-850_04	2	27	his	-PRON-	PRP$
homer-odyssey-850_04	2	28	own	own	JJ
homer-odyssey-850_04	2	29	house	house	NN
homer-odyssey-850_04	2	30	,	,	,
homer-odyssey-850_04	2	31	feasting	feast	VBG
homer-odyssey-850_04	2	32	with	with	IN
homer-odyssey-850_04	2	33	his	-PRON-	PRP$
homer-odyssey-850_04	2	34	many	many	JJ
homer-odyssey-850_04	2	35	clansmen	clansman	NNS
homer-odyssey-850_04	2	36	in	in	IN
homer-odyssey-850_04	2	37	honour	honour	NN
homer-odyssey-850_04	2	38	of	of	IN
homer-odyssey-850_04	2	39	the	the	DT
homer-odyssey-850_04	2	40	wedding	wedding	NN
homer-odyssey-850_04	2	41	of	of	IN
homer-odyssey-850_04	2	42	his	-PRON-	PRP$
homer-odyssey-850_04	2	43	son	son	NN
homer-odyssey-850_04	2	44	,	,	,
homer-odyssey-850_04	2	45	and	and	CC
homer-odyssey-850_04	2	46	also	also	RB
homer-odyssey-850_04	2	47	of	of	IN
homer-odyssey-850_04	2	48	his	-PRON-	PRP$
homer-odyssey-850_04	2	49	daughter	daughter	NN
homer-odyssey-850_04	2	50	,	,	,
homer-odyssey-850_04	2	51	whom	whom	WP
homer-odyssey-850_04	2	52	he	-PRON-	PRP
homer-odyssey-850_04	2	53	was	be	VBD
homer-odyssey-850_04	2	54	marrying	marry	VBG
homer-odyssey-850_04	2	55	to	to	IN
homer-odyssey-850_04	2	56	the	the	DT
homer-odyssey-850_04	2	57	son	son	NN
homer-odyssey-850_04	2	58	of	of	IN
homer-odyssey-850_04	2	59	that	that	DT
homer-odyssey-850_04	2	60	valiant	valiant	JJ
homer-odyssey-850_04	2	61	warrior	warrior	NN
homer-odyssey-850_04	2	62	Achilles	achilles	NNPS
homer-odyssey-850_04	2	63	.	.	.
homer-odyssey-850_04	3	1	He	-PRON-	PRP
homer-odyssey-850_04	3	2	had	have	VBD
homer-odyssey-850_04	3	3	given	give	VBN
homer-odyssey-850_04	3	4	his	-PRON-	PRP$
homer-odyssey-850_04	3	5	consent	consent	NN
homer-odyssey-850_04	3	6	and	and	CC
homer-odyssey-850_04	3	7	promised	promise	VBD
homer-odyssey-850_04	3	8	her	-PRON-	PRP
homer-odyssey-850_04	3	9	to	to	IN
homer-odyssey-850_04	3	10	him	-PRON-	PRP
homer-odyssey-850_04	3	11	while	while	IN
homer-odyssey-850_04	3	12	he	-PRON-	PRP
homer-odyssey-850_04	3	13	was	be	VBD
homer-odyssey-850_04	3	14	still	still	RB
homer-odyssey-850_04	3	15	at	at	IN
homer-odyssey-850_04	3	16	Troy	troy	NNP
homer-odyssey-850_04	3	17	,	,	,
homer-odyssey-850_04	3	18	and	and	CC
homer-odyssey-850_04	3	19	now	now	RB
homer-odyssey-850_04	3	20	the	the	DT
homer-odyssey-850_04	3	21	gods	god	NNS
homer-odyssey-850_04	3	22	were	be	VBD
homer-odyssey-850_04	3	23	bringing	bring	VBG
homer-odyssey-850_04	3	24	the	the	DT
homer-odyssey-850_04	3	25	marriage	marriage	NN
homer-odyssey-850_04	3	26	about	about	RB
homer-odyssey-850_04	3	27	;	;	:
homer-odyssey-850_04	3	28	so	so	CC
homer-odyssey-850_04	3	29	he	-PRON-	PRP
homer-odyssey-850_04	3	30	was	be	VBD
homer-odyssey-850_04	3	31	sending	send	VBG
homer-odyssey-850_04	3	32	her	-PRON-	PRP
homer-odyssey-850_04	3	33	with	with	IN
homer-odyssey-850_04	3	34	chariots	chariot	NNS
homer-odyssey-850_04	3	35	and	and	CC
homer-odyssey-850_04	3	36	horses	horse	NNS
homer-odyssey-850_04	3	37	to	to	IN
homer-odyssey-850_04	3	38	the	the	DT
homer-odyssey-850_04	3	39	city	city	NN
homer-odyssey-850_04	3	40	of	of	IN
homer-odyssey-850_04	3	41	the	the	DT
homer-odyssey-850_04	3	42	Myrmidons	myrmidons	NNPS
homer-odyssey-850_04	3	43	over	over	IN
homer-odyssey-850_04	3	44	whom	whom	WP
homer-odyssey-850_04	3	45	Achilles	achilles	NNP
homer-odyssey-850_04	3	46	'	'	POS
homer-odyssey-850_04	3	47	son	son	NN
homer-odyssey-850_04	3	48	was	be	VBD
homer-odyssey-850_04	3	49	reigning	reign	VBG
homer-odyssey-850_04	3	50	.	.	.
homer-odyssey-850_04	4	1	For	for	IN
homer-odyssey-850_04	4	2	his	-PRON-	PRP$
homer-odyssey-850_04	4	3	only	only	JJ
homer-odyssey-850_04	4	4	son	son	NN
homer-odyssey-850_04	4	5	he	-PRON-	PRP
homer-odyssey-850_04	4	6	had	have	VBD
homer-odyssey-850_04	4	7	found	find	VBN
homer-odyssey-850_04	4	8	a	a	DT
homer-odyssey-850_04	4	9	bride	bride	NN
homer-odyssey-850_04	4	10	from	from	IN
homer-odyssey-850_04	4	11	Sparta	sparta	NNP
homer-odyssey-850_04	4	12	,	,	,
homer-odyssey-850_04	4	13	{	{	-LRB-
homer-odyssey-850_04	4	14	37	37	CD
homer-odyssey-850_04	4	15	}	}	-RRB-
homer-odyssey-850_04	4	16	the	the	DT
homer-odyssey-850_04	4	17	daughter	daughter	NN
homer-odyssey-850_04	4	18	of	of	IN
homer-odyssey-850_04	4	19	Alector	alector	NNP
homer-odyssey-850_04	4	20	.	.	.
homer-odyssey-850_04	5	1	This	this	DT
homer-odyssey-850_04	5	2	son	son	NN
homer-odyssey-850_04	5	3	,	,	,
homer-odyssey-850_04	5	4	Megapenthes	megapenthes	NNP
homer-odyssey-850_04	5	5	,	,	,
homer-odyssey-850_04	5	6	was	be	VBD
homer-odyssey-850_04	5	7	born	bear	VBN
homer-odyssey-850_04	5	8	to	to	IN
homer-odyssey-850_04	5	9	him	-PRON-	PRP
homer-odyssey-850_04	5	10	of	of	IN
homer-odyssey-850_04	5	11	a	a	DT
homer-odyssey-850_04	5	12	bondwoman	bondwoman	NN
homer-odyssey-850_04	5	13	,	,	,
homer-odyssey-850_04	5	14	for	for	IN
homer-odyssey-850_04	5	15	heaven	heaven	NNP
homer-odyssey-850_04	5	16	vouchsafed	vouchsafed	NN
homer-odyssey-850_04	5	17	Helen	helen	NNP
homer-odyssey-850_04	5	18	no	no	DT
homer-odyssey-850_04	5	19	more	more	JJR
homer-odyssey-850_04	5	20	children	child	NNS
homer-odyssey-850_04	5	21	after	after	IN
homer-odyssey-850_04	5	22	she	-PRON-	PRP
homer-odyssey-850_04	5	23	had	have	VBD
homer-odyssey-850_04	5	24	borne	bear	VBN
homer-odyssey-850_04	5	25	Hermione	hermione	NNP
homer-odyssey-850_04	5	26	,	,	,
homer-odyssey-850_04	5	27	who	who	WP
homer-odyssey-850_04	5	28	was	be	VBD
homer-odyssey-850_04	5	29	fair	fair	JJ
homer-odyssey-850_04	5	30	as	as	IN
homer-odyssey-850_04	5	31	golden	golden	JJ
homer-odyssey-850_04	5	32	Venus	venus	NNP
homer-odyssey-850_04	5	33	herself	-PRON-	PRP
homer-odyssey-850_04	5	34	.	.	.
homer-odyssey-850_04	6	1	So	so	RB
homer-odyssey-850_04	6	2	the	the	DT
homer-odyssey-850_04	6	3	neighbours	neighbour	NNS
homer-odyssey-850_04	6	4	and	and	CC
homer-odyssey-850_04	6	5	kinsmen	kinsman	NNS
homer-odyssey-850_04	6	6	of	of	IN
homer-odyssey-850_04	6	7	Menelaus	menelaus	NNP
homer-odyssey-850_04	6	8	were	be	VBD
homer-odyssey-850_04	6	9	feasting	feast	VBG
homer-odyssey-850_04	6	10	and	and	CC
homer-odyssey-850_04	6	11	making	make	VBG
homer-odyssey-850_04	6	12	merry	merry	NN
homer-odyssey-850_04	6	13	in	in	IN
homer-odyssey-850_04	6	14	his	-PRON-	PRP$
homer-odyssey-850_04	6	15	house	house	NN
homer-odyssey-850_04	6	16	.	.	.
homer-odyssey-850_04	7	1	There	there	EX
homer-odyssey-850_04	7	2	was	be	VBD
homer-odyssey-850_04	7	3	a	a	DT
homer-odyssey-850_04	7	4	bard	bard	NN
homer-odyssey-850_04	7	5	also	also	RB
homer-odyssey-850_04	7	6	to	to	TO
homer-odyssey-850_04	7	7	sing	sing	VB
homer-odyssey-850_04	7	8	to	to	IN
homer-odyssey-850_04	7	9	them	-PRON-	PRP
homer-odyssey-850_04	7	10	and	and	CC
homer-odyssey-850_04	7	11	play	play	VB
homer-odyssey-850_04	7	12	his	-PRON-	PRP$
homer-odyssey-850_04	7	13	lyre	lyre	NN
homer-odyssey-850_04	7	14	,	,	,
homer-odyssey-850_04	7	15	while	while	IN
homer-odyssey-850_04	7	16	two	two	CD
homer-odyssey-850_04	7	17	tumblers	tumbler	NNS
homer-odyssey-850_04	7	18	went	go	VBD
homer-odyssey-850_04	7	19	about	about	IN
homer-odyssey-850_04	7	20	performing	perform	VBG
homer-odyssey-850_04	7	21	in	in	IN
homer-odyssey-850_04	7	22	the	the	DT
homer-odyssey-850_04	7	23	midst	midst	NN
homer-odyssey-850_04	7	24	of	of	IN
homer-odyssey-850_04	7	25	them	-PRON-	PRP
homer-odyssey-850_04	7	26	when	when	WRB
homer-odyssey-850_04	7	27	the	the	DT
homer-odyssey-850_04	7	28	man	man	NN
homer-odyssey-850_04	7	29	struck	strike	VBD
homer-odyssey-850_04	7	30	up	up	RP
homer-odyssey-850_04	7	31	with	with	IN
homer-odyssey-850_04	7	32	his	-PRON-	PRP$
homer-odyssey-850_04	7	33	tune	tune	NN
homer-odyssey-850_04	7	34	.	.	.
homer-odyssey-850_04	7	35	]	]	-RRB-
homer-odyssey-850_04	8	1	{	{	-LRB-
homer-odyssey-850_04	8	2	38	38	CD
homer-odyssey-850_04	8	3	}	}	-RRB-
homer-odyssey-850_04	8	4	Telemachus	telemachus	NNP
homer-odyssey-850_04	8	5	and	and	CC
homer-odyssey-850_04	8	6	the	the	DT
homer-odyssey-850_04	8	7	son	son	NN
homer-odyssey-850_04	8	8	of	of	IN
homer-odyssey-850_04	8	9	Nestor	nestor	NNP
homer-odyssey-850_04	8	10	stayed	stay	VBD
homer-odyssey-850_04	8	11	their	-PRON-	PRP$
homer-odyssey-850_04	8	12	horses	horse	NNS
homer-odyssey-850_04	8	13	at	at	IN
homer-odyssey-850_04	8	14	the	the	DT
homer-odyssey-850_04	8	15	gate	gate	NN
homer-odyssey-850_04	8	16	,	,	,
homer-odyssey-850_04	8	17	whereon	whereon	NN
homer-odyssey-850_04	8	18	Eteoneus	eteoneus	NNP
homer-odyssey-850_04	8	19	servant	servant	NN
homer-odyssey-850_04	8	20	to	to	IN
homer-odyssey-850_04	8	21	Menelaus	menelaus	NNP
homer-odyssey-850_04	8	22	came	come	VBD
homer-odyssey-850_04	8	23	out	out	RP
homer-odyssey-850_04	8	24	,	,	,
homer-odyssey-850_04	8	25	and	and	CC
homer-odyssey-850_04	8	26	as	as	RB
homer-odyssey-850_04	8	27	soon	soon	RB
homer-odyssey-850_04	8	28	as	as	IN
homer-odyssey-850_04	8	29	he	-PRON-	PRP
homer-odyssey-850_04	8	30	saw	see	VBD
homer-odyssey-850_04	8	31	them	-PRON-	PRP
homer-odyssey-850_04	8	32	ran	run	VBD
homer-odyssey-850_04	8	33	hurrying	hurry	VBG
homer-odyssey-850_04	8	34	back	back	RB
homer-odyssey-850_04	8	35	into	into	IN
homer-odyssey-850_04	8	36	the	the	DT
homer-odyssey-850_04	8	37	house	house	NN
homer-odyssey-850_04	8	38	to	to	TO
homer-odyssey-850_04	8	39	tell	tell	VB
homer-odyssey-850_04	8	40	his	-PRON-	PRP$
homer-odyssey-850_04	8	41	Master	master	NNP
homer-odyssey-850_04	8	42	.	.	.
homer-odyssey-850_04	9	1	He	-PRON-	PRP
homer-odyssey-850_04	9	2	went	go	VBD
homer-odyssey-850_04	9	3	close	close	RB
homer-odyssey-850_04	9	4	up	up	RP
homer-odyssey-850_04	9	5	to	to	IN
homer-odyssey-850_04	9	6	him	-PRON-	PRP
homer-odyssey-850_04	9	7	and	and	CC
homer-odyssey-850_04	9	8	said	say	VBD
homer-odyssey-850_04	9	9	,	,	,
homer-odyssey-850_04	9	10	"	"	``
homer-odyssey-850_04	9	11	Menelaus	menelaus	NNP
homer-odyssey-850_04	9	12	,	,	,
homer-odyssey-850_04	9	13	there	there	EX
homer-odyssey-850_04	9	14	are	be	VBP
homer-odyssey-850_04	9	15	some	some	DT
homer-odyssey-850_04	9	16	strangers	stranger	NNS
homer-odyssey-850_04	9	17	come	come	VB
homer-odyssey-850_04	9	18	here	here	RB
homer-odyssey-850_04	9	19	,	,	,
homer-odyssey-850_04	9	20	two	two	CD
homer-odyssey-850_04	9	21	men	man	NNS
homer-odyssey-850_04	9	22	,	,	,
homer-odyssey-850_04	9	23	who	who	WP
homer-odyssey-850_04	9	24	look	look	VBP
homer-odyssey-850_04	9	25	like	like	IN
homer-odyssey-850_04	9	26	sons	son	NNS
homer-odyssey-850_04	9	27	of	of	IN
homer-odyssey-850_04	9	28	Jove	jove	NNP
homer-odyssey-850_04	9	29	.	.	.
homer-odyssey-850_04	10	1	What	what	WP
homer-odyssey-850_04	10	2	are	be	VBP
homer-odyssey-850_04	10	3	we	-PRON-	PRP
homer-odyssey-850_04	10	4	to	to	TO
homer-odyssey-850_04	10	5	do	do	VB
homer-odyssey-850_04	10	6	?	?	.
homer-odyssey-850_04	11	1	Shall	shall	MD
homer-odyssey-850_04	11	2	we	-PRON-	PRP
homer-odyssey-850_04	11	3	take	take	VB
homer-odyssey-850_04	11	4	their	-PRON-	PRP$
homer-odyssey-850_04	11	5	horses	horse	NNS
homer-odyssey-850_04	11	6	out	out	RP
homer-odyssey-850_04	11	7	,	,	,
homer-odyssey-850_04	11	8	or	or	CC
homer-odyssey-850_04	11	9	tell	tell	VB
homer-odyssey-850_04	11	10	them	-PRON-	PRP
homer-odyssey-850_04	11	11	to	to	TO
homer-odyssey-850_04	11	12	find	find	VB
homer-odyssey-850_04	11	13	friends	friend	NNS
homer-odyssey-850_04	11	14	elsewhere	elsewhere	RB
homer-odyssey-850_04	11	15	as	as	IN
homer-odyssey-850_04	11	16	they	-PRON-	PRP
homer-odyssey-850_04	11	17	best	best	RB
homer-odyssey-850_04	11	18	can	can	MD
homer-odyssey-850_04	11	19	?	?	.
homer-odyssey-850_04	11	20	"	"	''
homer-odyssey-850_04	12	1	Menelaus	menelaus	NNP
homer-odyssey-850_04	12	2	was	be	VBD
homer-odyssey-850_04	12	3	very	very	RB
homer-odyssey-850_04	12	4	angry	angry	JJ
homer-odyssey-850_04	12	5	and	and	CC
homer-odyssey-850_04	12	6	said	say	VBD
homer-odyssey-850_04	12	7	,	,	,
homer-odyssey-850_04	12	8	"	"	``
homer-odyssey-850_04	12	9	Eteoneus	eteoneus	NNP
homer-odyssey-850_04	12	10	,	,	,
homer-odyssey-850_04	12	11	son	son	NN
homer-odyssey-850_04	12	12	of	of	IN
homer-odyssey-850_04	12	13	Boethous	boethous	NNP
homer-odyssey-850_04	12	14	,	,	,
homer-odyssey-850_04	12	15	you	-PRON-	PRP
homer-odyssey-850_04	12	16	never	never	RB
homer-odyssey-850_04	12	17	used	use	VBD
homer-odyssey-850_04	12	18	to	to	TO
homer-odyssey-850_04	12	19	be	be	VB
homer-odyssey-850_04	12	20	a	a	DT
homer-odyssey-850_04	12	21	fool	fool	NN
homer-odyssey-850_04	12	22	,	,	,
homer-odyssey-850_04	12	23	but	but	CC
homer-odyssey-850_04	12	24	now	now	RB
homer-odyssey-850_04	12	25	you	-PRON-	PRP
homer-odyssey-850_04	12	26	talk	talk	VBP
homer-odyssey-850_04	12	27	like	like	IN
homer-odyssey-850_04	12	28	a	a	DT
homer-odyssey-850_04	12	29	simpleton	simpleton	NN
homer-odyssey-850_04	12	30	.	.	.
homer-odyssey-850_04	13	1	Take	take	VB
homer-odyssey-850_04	13	2	their	-PRON-	PRP$
homer-odyssey-850_04	13	3	horses	horse	NNS
homer-odyssey-850_04	13	4	out	out	RP
homer-odyssey-850_04	13	5	,	,	,
homer-odyssey-850_04	13	6	of	of	IN
homer-odyssey-850_04	13	7	course	course	NN
homer-odyssey-850_04	13	8	,	,	,
homer-odyssey-850_04	13	9	and	and	CC
homer-odyssey-850_04	13	10	show	show	VB
homer-odyssey-850_04	13	11	the	the	DT
homer-odyssey-850_04	13	12	strangers	stranger	NNS
homer-odyssey-850_04	13	13	in	in	IN
homer-odyssey-850_04	13	14	that	that	IN
homer-odyssey-850_04	13	15	they	-PRON-	PRP
homer-odyssey-850_04	13	16	may	may	MD
homer-odyssey-850_04	13	17	have	have	VB
homer-odyssey-850_04	13	18	supper	supper	NN
homer-odyssey-850_04	13	19	;	;	:
homer-odyssey-850_04	13	20	you	-PRON-	PRP
homer-odyssey-850_04	13	21	and	and	CC
homer-odyssey-850_04	13	22	I	-PRON-	PRP
homer-odyssey-850_04	13	23	have	have	VBP
homer-odyssey-850_04	13	24	staid	staid	VBN
homer-odyssey-850_04	13	25	often	often	RB
homer-odyssey-850_04	13	26	enough	enough	RB
homer-odyssey-850_04	13	27	at	at	IN
homer-odyssey-850_04	13	28	other	other	JJ
homer-odyssey-850_04	13	29	people	people	NNS
homer-odyssey-850_04	13	30	's	's	POS
homer-odyssey-850_04	13	31	houses	house	NNS
homer-odyssey-850_04	13	32	before	before	IN
homer-odyssey-850_04	13	33	we	-PRON-	PRP
homer-odyssey-850_04	13	34	got	get	VBD
homer-odyssey-850_04	13	35	back	back	RB
homer-odyssey-850_04	13	36	here	here	RB
homer-odyssey-850_04	13	37	,	,	,
homer-odyssey-850_04	13	38	where	where	WRB
homer-odyssey-850_04	13	39	heaven	heaven	NNP
homer-odyssey-850_04	13	40	grant	grant	VB
homer-odyssey-850_04	13	41	that	that	IN
homer-odyssey-850_04	13	42	we	-PRON-	PRP
homer-odyssey-850_04	13	43	may	may	MD
homer-odyssey-850_04	13	44	rest	rest	VB
homer-odyssey-850_04	13	45	in	in	IN
homer-odyssey-850_04	13	46	peace	peace	NN
homer-odyssey-850_04	13	47	henceforward	henceforward	NN
homer-odyssey-850_04	13	48	.	.	.
homer-odyssey-850_04	13	49	"	"	''
homer-odyssey-850_04	14	1	So	so	RB
homer-odyssey-850_04	14	2	Eteoneus	eteoneus	NNP
homer-odyssey-850_04	14	3	bustled	bustle	VBD
homer-odyssey-850_04	14	4	back	back	RB
homer-odyssey-850_04	14	5	and	and	CC
homer-odyssey-850_04	14	6	bade	bade	VB
homer-odyssey-850_04	14	7	the	the	DT
homer-odyssey-850_04	14	8	other	other	JJ
homer-odyssey-850_04	14	9	servants	servant	NNS
homer-odyssey-850_04	14	10	come	come	VBP
homer-odyssey-850_04	14	11	with	with	IN
homer-odyssey-850_04	14	12	him	-PRON-	PRP
homer-odyssey-850_04	14	13	.	.	.
homer-odyssey-850_04	15	1	They	-PRON-	PRP
homer-odyssey-850_04	15	2	took	take	VBD
homer-odyssey-850_04	15	3	their	-PRON-	PRP$
homer-odyssey-850_04	15	4	sweating	sweating	NN
homer-odyssey-850_04	15	5	steeds	steed	VBZ
homer-odyssey-850_04	15	6	from	from	IN
homer-odyssey-850_04	15	7	under	under	IN
homer-odyssey-850_04	15	8	the	the	DT
homer-odyssey-850_04	15	9	yoke	yoke	NN
homer-odyssey-850_04	15	10	,	,	,
homer-odyssey-850_04	15	11	made	make	VBD
homer-odyssey-850_04	15	12	them	-PRON-	PRP
homer-odyssey-850_04	15	13	fast	fast	RB
homer-odyssey-850_04	15	14	to	to	IN
homer-odyssey-850_04	15	15	the	the	DT
homer-odyssey-850_04	15	16	mangers	manger	NNS
homer-odyssey-850_04	15	17	,	,	,
homer-odyssey-850_04	15	18	and	and	CC
homer-odyssey-850_04	15	19	gave	give	VBD
homer-odyssey-850_04	15	20	them	-PRON-	PRP
homer-odyssey-850_04	15	21	a	a	DT
homer-odyssey-850_04	15	22	feed	feed	NN
homer-odyssey-850_04	15	23	of	of	IN
homer-odyssey-850_04	15	24	oats	oats	NN
homer-odyssey-850_04	15	25	and	and	CC
homer-odyssey-850_04	15	26	barley	barley	NN
homer-odyssey-850_04	15	27	mixed	mixed	JJ
homer-odyssey-850_04	15	28	.	.	.
homer-odyssey-850_04	16	1	Then	then	RB
homer-odyssey-850_04	16	2	they	-PRON-	PRP
homer-odyssey-850_04	16	3	leaned	lean	VBD
homer-odyssey-850_04	16	4	the	the	DT
homer-odyssey-850_04	16	5	chariot	chariot	NN
homer-odyssey-850_04	16	6	against	against	IN
homer-odyssey-850_04	16	7	the	the	DT
homer-odyssey-850_04	16	8	end	end	NN
homer-odyssey-850_04	16	9	wall	wall	NN
homer-odyssey-850_04	16	10	of	of	IN
homer-odyssey-850_04	16	11	the	the	DT
homer-odyssey-850_04	16	12	courtyard	courtyard	NN
homer-odyssey-850_04	16	13	,	,	,
homer-odyssey-850_04	16	14	and	and	CC
homer-odyssey-850_04	16	15	led	lead	VBD
homer-odyssey-850_04	16	16	the	the	DT
homer-odyssey-850_04	16	17	way	way	NN
homer-odyssey-850_04	16	18	into	into	IN
homer-odyssey-850_04	16	19	the	the	DT
homer-odyssey-850_04	16	20	house	house	NN
homer-odyssey-850_04	16	21	.	.	.
homer-odyssey-850_04	17	1	Telemachus	telemachus	NNP
homer-odyssey-850_04	17	2	and	and	CC
homer-odyssey-850_04	17	3	Pisistratus	pisistratus	NNP
homer-odyssey-850_04	17	4	were	be	VBD
homer-odyssey-850_04	17	5	astonished	astonish	VBN
homer-odyssey-850_04	17	6	when	when	WRB
homer-odyssey-850_04	17	7	they	-PRON-	PRP
homer-odyssey-850_04	17	8	saw	see	VBD
homer-odyssey-850_04	17	9	it	-PRON-	PRP
homer-odyssey-850_04	17	10	,	,	,
homer-odyssey-850_04	17	11	for	for	IN
homer-odyssey-850_04	17	12	its	-PRON-	PRP$
homer-odyssey-850_04	17	13	splendour	splendour	NN
homer-odyssey-850_04	17	14	was	be	VBD
homer-odyssey-850_04	17	15	as	as	IN
homer-odyssey-850_04	17	16	that	that	DT
homer-odyssey-850_04	17	17	of	of	IN
homer-odyssey-850_04	17	18	the	the	DT
homer-odyssey-850_04	17	19	sun	sun	NN
homer-odyssey-850_04	17	20	and	and	CC
homer-odyssey-850_04	17	21	moon	moon	NN
homer-odyssey-850_04	17	22	;	;	:
homer-odyssey-850_04	17	23	then	then	RB
homer-odyssey-850_04	17	24	,	,	,
homer-odyssey-850_04	17	25	when	when	WRB
homer-odyssey-850_04	17	26	they	-PRON-	PRP
homer-odyssey-850_04	17	27	had	have	VBD
homer-odyssey-850_04	17	28	admired	admire	VBN
homer-odyssey-850_04	17	29	everything	everything	NN
homer-odyssey-850_04	17	30	to	to	IN
homer-odyssey-850_04	17	31	their	-PRON-	PRP$
homer-odyssey-850_04	17	32	heart	heart	NN
homer-odyssey-850_04	17	33	's	's	POS
homer-odyssey-850_04	17	34	content	content	NN
homer-odyssey-850_04	17	35	,	,	,
homer-odyssey-850_04	17	36	they	-PRON-	PRP
homer-odyssey-850_04	17	37	went	go	VBD
homer-odyssey-850_04	17	38	into	into	IN
homer-odyssey-850_04	17	39	the	the	DT
homer-odyssey-850_04	17	40	bath	bath	NN
homer-odyssey-850_04	17	41	room	room	NN
homer-odyssey-850_04	17	42	and	and	CC
homer-odyssey-850_04	17	43	washed	wash	VBD
homer-odyssey-850_04	17	44	themselves	-PRON-	PRP
homer-odyssey-850_04	17	45	.	.	.
homer-odyssey-850_04	18	1	When	when	WRB
homer-odyssey-850_04	18	2	the	the	DT
homer-odyssey-850_04	18	3	servants	servant	NNS
homer-odyssey-850_04	18	4	had	have	VBD
homer-odyssey-850_04	18	5	washed	wash	VBN
homer-odyssey-850_04	18	6	them	-PRON-	PRP
homer-odyssey-850_04	18	7	and	and	CC
homer-odyssey-850_04	18	8	anointed	anoint	VBD
homer-odyssey-850_04	18	9	them	-PRON-	PRP
homer-odyssey-850_04	18	10	with	with	IN
homer-odyssey-850_04	18	11	oil	oil	NN
homer-odyssey-850_04	18	12	,	,	,
homer-odyssey-850_04	18	13	they	-PRON-	PRP
homer-odyssey-850_04	18	14	brought	bring	VBD
homer-odyssey-850_04	18	15	them	-PRON-	PRP
homer-odyssey-850_04	18	16	woollen	woollen	JJ
homer-odyssey-850_04	18	17	cloaks	cloak	NNS
homer-odyssey-850_04	18	18	and	and	CC
homer-odyssey-850_04	18	19	shirts	shirt	NNS
homer-odyssey-850_04	18	20	,	,	,
homer-odyssey-850_04	18	21	and	and	CC
homer-odyssey-850_04	18	22	the	the	DT
homer-odyssey-850_04	18	23	two	two	CD
homer-odyssey-850_04	18	24	took	take	VBD
homer-odyssey-850_04	18	25	their	-PRON-	PRP$
homer-odyssey-850_04	18	26	seats	seat	NNS
homer-odyssey-850_04	18	27	by	by	IN
homer-odyssey-850_04	18	28	the	the	DT
homer-odyssey-850_04	18	29	side	side	NN
homer-odyssey-850_04	18	30	of	of	IN
homer-odyssey-850_04	18	31	Menelaus	menelaus	NNP
homer-odyssey-850_04	18	32	.	.	.
homer-odyssey-850_04	19	1	A	a	DT
homer-odyssey-850_04	19	2	maid-	maid-	NN
homer-odyssey-850_04	19	3	servant	servant	NN
homer-odyssey-850_04	19	4	brought	bring	VBD
homer-odyssey-850_04	19	5	them	-PRON-	PRP
homer-odyssey-850_04	19	6	water	water	NN
homer-odyssey-850_04	19	7	in	in	IN
homer-odyssey-850_04	19	8	a	a	DT
homer-odyssey-850_04	19	9	beautiful	beautiful	JJ
homer-odyssey-850_04	19	10	golden	golden	JJ
homer-odyssey-850_04	19	11	ewer	ewer	NN
homer-odyssey-850_04	19	12	,	,	,
homer-odyssey-850_04	19	13	and	and	CC
homer-odyssey-850_04	19	14	poured	pour	VBD
homer-odyssey-850_04	19	15	it	-PRON-	PRP
homer-odyssey-850_04	19	16	into	into	IN
homer-odyssey-850_04	19	17	a	a	DT
homer-odyssey-850_04	19	18	silver	silver	JJ
homer-odyssey-850_04	19	19	basin	basin	NN
homer-odyssey-850_04	19	20	for	for	IN
homer-odyssey-850_04	19	21	them	-PRON-	PRP
homer-odyssey-850_04	19	22	to	to	TO
homer-odyssey-850_04	19	23	wash	wash	VB
homer-odyssey-850_04	19	24	their	-PRON-	PRP$
homer-odyssey-850_04	19	25	hands	hand	NNS
homer-odyssey-850_04	19	26	;	;	:
homer-odyssey-850_04	19	27	and	and	CC
homer-odyssey-850_04	19	28	she	-PRON-	PRP
homer-odyssey-850_04	19	29	drew	draw	VBD
homer-odyssey-850_04	19	30	a	a	DT
homer-odyssey-850_04	19	31	clean	clean	JJ
homer-odyssey-850_04	19	32	table	table	NN
homer-odyssey-850_04	19	33	beside	beside	IN
homer-odyssey-850_04	19	34	them	-PRON-	PRP
homer-odyssey-850_04	19	35	.	.	.
homer-odyssey-850_04	20	1	An	an	DT
homer-odyssey-850_04	20	2	upper	upper	JJ
homer-odyssey-850_04	20	3	servant	servant	NN
homer-odyssey-850_04	20	4	brought	bring	VBD
homer-odyssey-850_04	20	5	them	-PRON-	PRP
homer-odyssey-850_04	20	6	bread	bread	NN
homer-odyssey-850_04	20	7	,	,	,
homer-odyssey-850_04	20	8	and	and	CC
homer-odyssey-850_04	20	9	offered	offer	VBD
homer-odyssey-850_04	20	10	them	-PRON-	PRP
homer-odyssey-850_04	20	11	many	many	JJ
homer-odyssey-850_04	20	12	good	good	JJ
homer-odyssey-850_04	20	13	things	thing	NNS
homer-odyssey-850_04	20	14	of	of	IN
homer-odyssey-850_04	20	15	what	what	WP
homer-odyssey-850_04	20	16	there	there	EX
homer-odyssey-850_04	20	17	was	be	VBD
homer-odyssey-850_04	20	18	in	in	IN
homer-odyssey-850_04	20	19	the	the	DT
homer-odyssey-850_04	20	20	house	house	NN
homer-odyssey-850_04	20	21	,	,	,
homer-odyssey-850_04	20	22	while	while	IN
homer-odyssey-850_04	20	23	the	the	DT
homer-odyssey-850_04	20	24	carver	carver	NN
homer-odyssey-850_04	20	25	fetched	fetch	VBD
homer-odyssey-850_04	20	26	them	-PRON-	PRP
homer-odyssey-850_04	20	27	plates	plate	NNS
homer-odyssey-850_04	20	28	of	of	IN
homer-odyssey-850_04	20	29	all	all	DT
homer-odyssey-850_04	20	30	manner	manner	NN
homer-odyssey-850_04	20	31	of	of	IN
homer-odyssey-850_04	20	32	meats	meat	NNS
homer-odyssey-850_04	20	33	and	and	CC
homer-odyssey-850_04	20	34	set	set	VBN
homer-odyssey-850_04	20	35	cups	cup	NNS
homer-odyssey-850_04	20	36	of	of	IN
homer-odyssey-850_04	20	37	gold	gold	NN
homer-odyssey-850_04	20	38	by	by	IN
homer-odyssey-850_04	20	39	their	-PRON-	PRP$
homer-odyssey-850_04	20	40	side	side	NN
homer-odyssey-850_04	20	41	.	.	.
homer-odyssey-850_04	21	1	Menelaus	menelaus	NNP
homer-odyssey-850_04	21	2	then	then	RB
homer-odyssey-850_04	21	3	greeted	greet	VBD
homer-odyssey-850_04	21	4	them	-PRON-	PRP
homer-odyssey-850_04	21	5	saying	say	VBG
homer-odyssey-850_04	21	6	,	,	,
homer-odyssey-850_04	21	7	"	"	``
homer-odyssey-850_04	21	8	Fall	fall	VB
homer-odyssey-850_04	21	9	to	to	IN
homer-odyssey-850_04	21	10	,	,	,
homer-odyssey-850_04	21	11	and	and	CC
homer-odyssey-850_04	21	12	welcome	welcome	JJ
homer-odyssey-850_04	21	13	;	;	:
homer-odyssey-850_04	21	14	when	when	WRB
homer-odyssey-850_04	21	15	you	-PRON-	PRP
homer-odyssey-850_04	21	16	have	have	VBP
homer-odyssey-850_04	21	17	done	do	VBN
homer-odyssey-850_04	21	18	supper	supper	NN
homer-odyssey-850_04	21	19	I	-PRON-	PRP
homer-odyssey-850_04	21	20	shall	shall	MD
homer-odyssey-850_04	21	21	ask	ask	VB
homer-odyssey-850_04	21	22	who	who	WP
homer-odyssey-850_04	21	23	you	-PRON-	PRP
homer-odyssey-850_04	21	24	are	be	VBP
homer-odyssey-850_04	21	25	,	,	,
homer-odyssey-850_04	21	26	for	for	IN
homer-odyssey-850_04	21	27	the	the	DT
homer-odyssey-850_04	21	28	lineage	lineage	NN
homer-odyssey-850_04	21	29	of	of	IN
homer-odyssey-850_04	21	30	such	such	JJ
homer-odyssey-850_04	21	31	men	man	NNS
homer-odyssey-850_04	21	32	as	as	IN
homer-odyssey-850_04	21	33	you	-PRON-	PRP
homer-odyssey-850_04	21	34	can	can	MD
homer-odyssey-850_04	21	35	not	not	RB
homer-odyssey-850_04	21	36	have	have	VB
homer-odyssey-850_04	21	37	been	be	VBN
homer-odyssey-850_04	21	38	lost	lose	VBN
homer-odyssey-850_04	21	39	.	.	.
homer-odyssey-850_04	22	1	You	-PRON-	PRP
homer-odyssey-850_04	22	2	must	must	MD
homer-odyssey-850_04	22	3	be	be	VB
homer-odyssey-850_04	22	4	descended	descend	VBN
homer-odyssey-850_04	22	5	from	from	IN
homer-odyssey-850_04	22	6	a	a	DT
homer-odyssey-850_04	22	7	line	line	NN
homer-odyssey-850_04	22	8	of	of	IN
homer-odyssey-850_04	22	9	sceptre-	sceptre-	JJ
homer-odyssey-850_04	22	10	bearing	bearing	NN
homer-odyssey-850_04	22	11	kings	king	NNS
homer-odyssey-850_04	22	12	,	,	,
homer-odyssey-850_04	22	13	for	for	IN
homer-odyssey-850_04	22	14	poor	poor	JJ
homer-odyssey-850_04	22	15	people	people	NNS
homer-odyssey-850_04	22	16	do	do	VBP
homer-odyssey-850_04	22	17	not	not	RB
homer-odyssey-850_04	22	18	have	have	VB
homer-odyssey-850_04	22	19	such	such	JJ
homer-odyssey-850_04	22	20	sons	son	NNS
homer-odyssey-850_04	22	21	as	as	IN
homer-odyssey-850_04	22	22	you	-PRON-	PRP
homer-odyssey-850_04	22	23	are	be	VBP
homer-odyssey-850_04	22	24	.	.	.
homer-odyssey-850_04	22	25	"	"	''
homer-odyssey-850_04	23	1	On	on	IN
homer-odyssey-850_04	23	2	this	this	DT
homer-odyssey-850_04	23	3	he	-PRON-	PRP
homer-odyssey-850_04	23	4	handed	hand	VBD
homer-odyssey-850_04	23	5	them	-PRON-	PRP
homer-odyssey-850_04	23	6	{	{	-LRB-
homer-odyssey-850_04	23	7	39	39	CD
homer-odyssey-850_04	23	8	}	}	-RRB-
homer-odyssey-850_04	23	9	a	a	DT
homer-odyssey-850_04	23	10	piece	piece	NN
homer-odyssey-850_04	23	11	of	of	IN
homer-odyssey-850_04	23	12	fat	fat	JJ
homer-odyssey-850_04	23	13	roast	roast	NN
homer-odyssey-850_04	23	14	loin	loin	NN
homer-odyssey-850_04	23	15	,	,	,
homer-odyssey-850_04	23	16	which	which	WDT
homer-odyssey-850_04	23	17	had	have	VBD
homer-odyssey-850_04	23	18	been	be	VBN
homer-odyssey-850_04	23	19	set	set	VBN
homer-odyssey-850_04	23	20	near	near	IN
homer-odyssey-850_04	23	21	him	-PRON-	PRP
homer-odyssey-850_04	23	22	as	as	IN
homer-odyssey-850_04	23	23	being	be	VBG
homer-odyssey-850_04	23	24	a	a	DT
homer-odyssey-850_04	23	25	prime	prime	JJ
homer-odyssey-850_04	23	26	part	part	NN
homer-odyssey-850_04	23	27	,	,	,
homer-odyssey-850_04	23	28	and	and	CC
homer-odyssey-850_04	23	29	they	-PRON-	PRP
homer-odyssey-850_04	23	30	laid	lay	VBD
homer-odyssey-850_04	23	31	their	-PRON-	PRP$
homer-odyssey-850_04	23	32	hands	hand	NNS
homer-odyssey-850_04	23	33	on	on	IN
homer-odyssey-850_04	23	34	the	the	DT
homer-odyssey-850_04	23	35	good	good	JJ
homer-odyssey-850_04	23	36	things	thing	NNS
homer-odyssey-850_04	23	37	that	that	WDT
homer-odyssey-850_04	23	38	were	be	VBD
homer-odyssey-850_04	23	39	before	before	IN
homer-odyssey-850_04	23	40	them	-PRON-	PRP
homer-odyssey-850_04	23	41	;	;	:
homer-odyssey-850_04	23	42	as	as	RB
homer-odyssey-850_04	23	43	soon	soon	RB
homer-odyssey-850_04	23	44	as	as	IN
homer-odyssey-850_04	23	45	they	-PRON-	PRP
homer-odyssey-850_04	23	46	had	have	VBD
homer-odyssey-850_04	23	47	had	have	VBN
homer-odyssey-850_04	23	48	enough	enough	JJ
homer-odyssey-850_04	23	49	to	to	TO
homer-odyssey-850_04	23	50	eat	eat	VB
homer-odyssey-850_04	23	51	and	and	CC
homer-odyssey-850_04	23	52	drink	drink	VB
homer-odyssey-850_04	23	53	,	,	,
homer-odyssey-850_04	23	54	Telemachus	telemachus	NNP
homer-odyssey-850_04	23	55	said	say	VBD
homer-odyssey-850_04	23	56	to	to	IN
homer-odyssey-850_04	23	57	the	the	DT
homer-odyssey-850_04	23	58	son	son	NN
homer-odyssey-850_04	23	59	of	of	IN
homer-odyssey-850_04	23	60	Nestor	nestor	NNP
homer-odyssey-850_04	23	61	,	,	,
homer-odyssey-850_04	23	62	with	with	IN
homer-odyssey-850_04	23	63	his	-PRON-	PRP$
homer-odyssey-850_04	23	64	head	head	NN
homer-odyssey-850_04	23	65	so	so	RB
homer-odyssey-850_04	23	66	close	close	RB
homer-odyssey-850_04	23	67	that	that	IN
homer-odyssey-850_04	23	68	no	no	DT
homer-odyssey-850_04	23	69	one	one	NN
homer-odyssey-850_04	23	70	might	may	MD
homer-odyssey-850_04	23	71	hear	hear	VB
homer-odyssey-850_04	23	72	,	,	,
homer-odyssey-850_04	23	73	"	"	``
homer-odyssey-850_04	23	74	Look	look	VB
homer-odyssey-850_04	23	75	,	,	,
homer-odyssey-850_04	23	76	Pisistratus	pisistratus	NNP
homer-odyssey-850_04	23	77	,	,	,
homer-odyssey-850_04	23	78	man	man	NN
homer-odyssey-850_04	23	79	after	after	IN
homer-odyssey-850_04	23	80	my	-PRON-	PRP$
homer-odyssey-850_04	23	81	own	own	JJ
homer-odyssey-850_04	23	82	heart	heart	NN
homer-odyssey-850_04	23	83	,	,	,
homer-odyssey-850_04	23	84	see	see	VB
homer-odyssey-850_04	23	85	the	the	DT
homer-odyssey-850_04	23	86	gleam	gleam	NN
homer-odyssey-850_04	23	87	of	of	IN
homer-odyssey-850_04	23	88	bronze	bronze	NN
homer-odyssey-850_04	23	89	and	and	CC
homer-odyssey-850_04	23	90	gold--	gold--	NN
homer-odyssey-850_04	23	91	of	of	IN
homer-odyssey-850_04	23	92	amber	amber	NN
homer-odyssey-850_04	23	93	,	,	,
homer-odyssey-850_04	23	94	{	{	-LRB-
homer-odyssey-850_04	23	95	40	40	CD
homer-odyssey-850_04	23	96	}	}	-RRB-
homer-odyssey-850_04	23	97	ivory	ivory	NN
homer-odyssey-850_04	23	98	,	,	,
homer-odyssey-850_04	23	99	and	and	CC
homer-odyssey-850_04	23	100	silver	silver	NN
homer-odyssey-850_04	23	101	.	.	.
homer-odyssey-850_04	24	1	Everything	everything	NN
homer-odyssey-850_04	24	2	is	be	VBZ
homer-odyssey-850_04	24	3	so	so	RB
homer-odyssey-850_04	24	4	splendid	splendid	JJ
homer-odyssey-850_04	24	5	that	that	IN
homer-odyssey-850_04	24	6	it	-PRON-	PRP
homer-odyssey-850_04	24	7	is	be	VBZ
homer-odyssey-850_04	24	8	like	like	IN
homer-odyssey-850_04	24	9	seeing	see	VBG
homer-odyssey-850_04	24	10	the	the	DT
homer-odyssey-850_04	24	11	palace	palace	NN
homer-odyssey-850_04	24	12	of	of	IN
homer-odyssey-850_04	24	13	Olympian	olympian	NNP
homer-odyssey-850_04	24	14	Jove	jove	NNP
homer-odyssey-850_04	24	15	.	.	.
homer-odyssey-850_04	25	1	I	-PRON-	PRP
homer-odyssey-850_04	25	2	am	be	VBP
homer-odyssey-850_04	25	3	lost	lose	VBN
homer-odyssey-850_04	25	4	in	in	IN
homer-odyssey-850_04	25	5	admiration	admiration	NN
homer-odyssey-850_04	25	6	.	.	.
homer-odyssey-850_04	25	7	"	"	''
homer-odyssey-850_04	26	1	Menelaus	menelau	NNS
homer-odyssey-850_04	26	2	overheard	overheard	VBP
homer-odyssey-850_04	26	3	him	-PRON-	PRP
homer-odyssey-850_04	26	4	and	and	CC
homer-odyssey-850_04	26	5	said	say	VBD
homer-odyssey-850_04	26	6	,	,	,
homer-odyssey-850_04	26	7	"	"	``
homer-odyssey-850_04	26	8	No	no	DT
homer-odyssey-850_04	26	9	one	one	NN
homer-odyssey-850_04	26	10	,	,	,
homer-odyssey-850_04	26	11	my	-PRON-	PRP$
homer-odyssey-850_04	26	12	sons	son	NNS
homer-odyssey-850_04	26	13	,	,	,
homer-odyssey-850_04	26	14	can	can	MD
homer-odyssey-850_04	26	15	hold	hold	VB
homer-odyssey-850_04	26	16	his	-PRON-	PRP$
homer-odyssey-850_04	26	17	own	own	JJ
homer-odyssey-850_04	26	18	with	with	IN
homer-odyssey-850_04	26	19	Jove	jove	NNP
homer-odyssey-850_04	26	20	,	,	,
homer-odyssey-850_04	26	21	for	for	IN
homer-odyssey-850_04	26	22	his	-PRON-	PRP$
homer-odyssey-850_04	26	23	house	house	NN
homer-odyssey-850_04	26	24	and	and	CC
homer-odyssey-850_04	26	25	everything	everything	NN
homer-odyssey-850_04	26	26	about	about	IN
homer-odyssey-850_04	26	27	him	-PRON-	PRP
homer-odyssey-850_04	26	28	is	be	VBZ
homer-odyssey-850_04	26	29	immortal	immortal	JJ
homer-odyssey-850_04	26	30	;	;	:
homer-odyssey-850_04	26	31	but	but	CC
homer-odyssey-850_04	26	32	among	among	IN
homer-odyssey-850_04	26	33	mortal	mortal	NN
homer-odyssey-850_04	26	34	men--	men--	WP
homer-odyssey-850_04	26	35	well	well	RB
homer-odyssey-850_04	26	36	,	,	,
homer-odyssey-850_04	26	37	there	there	EX
homer-odyssey-850_04	26	38	may	may	MD
homer-odyssey-850_04	26	39	be	be	VB
homer-odyssey-850_04	26	40	another	another	DT
homer-odyssey-850_04	26	41	who	who	WP
homer-odyssey-850_04	26	42	has	have	VBZ
homer-odyssey-850_04	26	43	as	as	RB
homer-odyssey-850_04	26	44	much	much	JJ
homer-odyssey-850_04	26	45	wealth	wealth	NN
homer-odyssey-850_04	26	46	as	as	IN
homer-odyssey-850_04	26	47	I	-PRON-	PRP
homer-odyssey-850_04	26	48	have	have	VBP
homer-odyssey-850_04	26	49	,	,	,
homer-odyssey-850_04	26	50	or	or	CC
homer-odyssey-850_04	26	51	there	there	EX
homer-odyssey-850_04	26	52	may	may	MD
homer-odyssey-850_04	26	53	not	not	RB
homer-odyssey-850_04	26	54	;	;	:
homer-odyssey-850_04	26	55	but	but	CC
homer-odyssey-850_04	26	56	at	at	IN
homer-odyssey-850_04	26	57	all	all	DT
homer-odyssey-850_04	26	58	events	event	NNS
homer-odyssey-850_04	26	59	I	-PRON-	PRP
homer-odyssey-850_04	26	60	have	have	VBP
homer-odyssey-850_04	26	61	travelled	travel	VBN
homer-odyssey-850_04	26	62	much	much	RB
homer-odyssey-850_04	26	63	and	and	CC
homer-odyssey-850_04	26	64	have	have	VBP
homer-odyssey-850_04	26	65	undergone	undergo	VBN
homer-odyssey-850_04	26	66	much	much	JJ
homer-odyssey-850_04	26	67	hardship	hardship	NN
homer-odyssey-850_04	26	68	,	,	,
homer-odyssey-850_04	26	69	for	for	IN
homer-odyssey-850_04	26	70	it	-PRON-	PRP
homer-odyssey-850_04	26	71	was	be	VBD
homer-odyssey-850_04	26	72	nearly	nearly	RB
homer-odyssey-850_04	26	73	eight	eight	CD
homer-odyssey-850_04	26	74	years	year	NNS
homer-odyssey-850_04	26	75	before	before	IN
homer-odyssey-850_04	26	76	I	-PRON-	PRP
homer-odyssey-850_04	26	77	could	could	MD
homer-odyssey-850_04	26	78	get	get	VB
homer-odyssey-850_04	26	79	home	home	RB
homer-odyssey-850_04	26	80	with	with	IN
homer-odyssey-850_04	26	81	my	-PRON-	PRP$
homer-odyssey-850_04	26	82	fleet	fleet	NN
homer-odyssey-850_04	26	83	.	.	.
homer-odyssey-850_04	27	1	I	-PRON-	PRP
homer-odyssey-850_04	27	2	went	go	VBD
homer-odyssey-850_04	27	3	to	to	IN
homer-odyssey-850_04	27	4	Cyprus	cyprus	NNP
homer-odyssey-850_04	27	5	,	,	,
homer-odyssey-850_04	27	6	Phoenicia	phoenicia	NNP
homer-odyssey-850_04	27	7	and	and	CC
homer-odyssey-850_04	27	8	the	the	DT
homer-odyssey-850_04	27	9	Egyptians	egyptians	NNPS
homer-odyssey-850_04	27	10	;	;	:
homer-odyssey-850_04	27	11	I	-PRON-	PRP
homer-odyssey-850_04	27	12	went	go	VBD
homer-odyssey-850_04	27	13	also	also	RB
homer-odyssey-850_04	27	14	to	to	IN
homer-odyssey-850_04	27	15	the	the	DT
homer-odyssey-850_04	27	16	Ethiopians	ethiopians	NNPS
homer-odyssey-850_04	27	17	,	,	,
homer-odyssey-850_04	27	18	the	the	DT
homer-odyssey-850_04	27	19	Sidonians	sidonians	NNPS
homer-odyssey-850_04	27	20	,	,	,
homer-odyssey-850_04	27	21	and	and	CC
homer-odyssey-850_04	27	22	the	the	DT
homer-odyssey-850_04	27	23	Erembians	erembians	NNPS
homer-odyssey-850_04	27	24	,	,	,
homer-odyssey-850_04	27	25	and	and	CC
homer-odyssey-850_04	27	26	to	to	IN
homer-odyssey-850_04	27	27	Libya	libya	NNP
homer-odyssey-850_04	27	28	where	where	WRB
homer-odyssey-850_04	27	29	the	the	DT
homer-odyssey-850_04	27	30	lambs	lamb	NNS
homer-odyssey-850_04	27	31	have	have	VBP
homer-odyssey-850_04	27	32	horns	horn	NNS
homer-odyssey-850_04	27	33	as	as	RB
homer-odyssey-850_04	27	34	soon	soon	RB
homer-odyssey-850_04	27	35	as	as	IN
homer-odyssey-850_04	27	36	they	-PRON-	PRP
homer-odyssey-850_04	27	37	are	be	VBP
homer-odyssey-850_04	27	38	born	bear	VBN
homer-odyssey-850_04	27	39	,	,	,
homer-odyssey-850_04	27	40	and	and	CC
homer-odyssey-850_04	27	41	the	the	DT
homer-odyssey-850_04	27	42	sheep	sheep	NN
homer-odyssey-850_04	27	43	lamb	lamb	NN
homer-odyssey-850_04	27	44	down	down	RB
homer-odyssey-850_04	27	45	three	three	CD
homer-odyssey-850_04	27	46	times	time	NNS
homer-odyssey-850_04	27	47	a	a	DT
homer-odyssey-850_04	27	48	year	year	NN
homer-odyssey-850_04	27	49	.	.	.
homer-odyssey-850_04	28	1	Every	every	DT
homer-odyssey-850_04	28	2	one	one	NN
homer-odyssey-850_04	28	3	in	in	IN
homer-odyssey-850_04	28	4	that	that	DT
homer-odyssey-850_04	28	5	country	country	NN
homer-odyssey-850_04	28	6	,	,	,
homer-odyssey-850_04	28	7	whether	whether	IN
homer-odyssey-850_04	28	8	master	master	NN
homer-odyssey-850_04	28	9	or	or	CC
homer-odyssey-850_04	28	10	man	man	NN
homer-odyssey-850_04	28	11	,	,	,
homer-odyssey-850_04	28	12	has	have	VBZ
homer-odyssey-850_04	28	13	plenty	plenty	NN
homer-odyssey-850_04	28	14	of	of	IN
homer-odyssey-850_04	28	15	cheese	cheese	NN
homer-odyssey-850_04	28	16	,	,	,
homer-odyssey-850_04	28	17	meat	meat	NN
homer-odyssey-850_04	28	18	,	,	,
homer-odyssey-850_04	28	19	and	and	CC
homer-odyssey-850_04	28	20	good	good	JJ
homer-odyssey-850_04	28	21	milk	milk	NN
homer-odyssey-850_04	28	22	,	,	,
homer-odyssey-850_04	28	23	for	for	IN
homer-odyssey-850_04	28	24	the	the	DT
homer-odyssey-850_04	28	25	ewes	ewes	NN
homer-odyssey-850_04	28	26	yield	yield	VBP
homer-odyssey-850_04	28	27	all	all	PDT
homer-odyssey-850_04	28	28	the	the	DT
homer-odyssey-850_04	28	29	year	year	NN
homer-odyssey-850_04	28	30	round	round	NN
homer-odyssey-850_04	28	31	.	.	.
homer-odyssey-850_04	29	1	But	but	CC
homer-odyssey-850_04	29	2	while	while	IN
homer-odyssey-850_04	29	3	I	-PRON-	PRP
homer-odyssey-850_04	29	4	was	be	VBD
homer-odyssey-850_04	29	5	travelling	travel	VBG
homer-odyssey-850_04	29	6	and	and	CC
homer-odyssey-850_04	29	7	getting	get	VBG
homer-odyssey-850_04	29	8	great	great	JJ
homer-odyssey-850_04	29	9	riches	rich	NNS
homer-odyssey-850_04	29	10	among	among	IN
homer-odyssey-850_04	29	11	these	these	DT
homer-odyssey-850_04	29	12	people	people	NNS
homer-odyssey-850_04	29	13	,	,	,
homer-odyssey-850_04	29	14	my	-PRON-	PRP$
homer-odyssey-850_04	29	15	brother	brother	NN
homer-odyssey-850_04	29	16	was	be	VBD
homer-odyssey-850_04	29	17	secretly	secretly	RB
homer-odyssey-850_04	29	18	and	and	CC
homer-odyssey-850_04	29	19	shockingly	shockingly	RB
homer-odyssey-850_04	29	20	murdered	murder	VBN
homer-odyssey-850_04	29	21	through	through	IN
homer-odyssey-850_04	29	22	the	the	DT
homer-odyssey-850_04	29	23	perfidy	perfidy	NN
homer-odyssey-850_04	29	24	of	of	IN
homer-odyssey-850_04	29	25	his	-PRON-	PRP$
homer-odyssey-850_04	29	26	wicked	wicked	JJ
homer-odyssey-850_04	29	27	wife	wife	NN
homer-odyssey-850_04	29	28	,	,	,
homer-odyssey-850_04	29	29	so	so	IN
homer-odyssey-850_04	29	30	that	that	IN
homer-odyssey-850_04	29	31	I	-PRON-	PRP
homer-odyssey-850_04	29	32	have	have	VBP
homer-odyssey-850_04	29	33	no	no	DT
homer-odyssey-850_04	29	34	pleasure	pleasure	NN
homer-odyssey-850_04	29	35	in	in	IN
homer-odyssey-850_04	29	36	being	be	VBG
homer-odyssey-850_04	29	37	lord	lord	NN
homer-odyssey-850_04	29	38	of	of	IN
homer-odyssey-850_04	29	39	all	all	PDT
homer-odyssey-850_04	29	40	this	this	DT
homer-odyssey-850_04	29	41	wealth	wealth	NN
homer-odyssey-850_04	29	42	.	.	.
homer-odyssey-850_04	30	1	Whoever	whoever	WP
homer-odyssey-850_04	30	2	your	-PRON-	PRP$
homer-odyssey-850_04	30	3	parents	parent	NNS
homer-odyssey-850_04	30	4	may	may	MD
homer-odyssey-850_04	30	5	be	be	VB
homer-odyssey-850_04	30	6	they	-PRON-	PRP
homer-odyssey-850_04	30	7	must	must	MD
homer-odyssey-850_04	30	8	have	have	VB
homer-odyssey-850_04	30	9	told	tell	VBN
homer-odyssey-850_04	30	10	you	-PRON-	PRP
homer-odyssey-850_04	30	11	about	about	IN
homer-odyssey-850_04	30	12	all	all	PDT
homer-odyssey-850_04	30	13	this	this	DT
homer-odyssey-850_04	30	14	,	,	,
homer-odyssey-850_04	30	15	and	and	CC
homer-odyssey-850_04	30	16	of	of	IN
homer-odyssey-850_04	30	17	my	-PRON-	PRP$
homer-odyssey-850_04	30	18	heavy	heavy	JJ
homer-odyssey-850_04	30	19	loss	loss	NN
homer-odyssey-850_04	30	20	in	in	IN
homer-odyssey-850_04	30	21	the	the	DT
homer-odyssey-850_04	30	22	ruin	ruin	NN
homer-odyssey-850_04	30	23	{	{	-LRB-
homer-odyssey-850_04	30	24	41	41	CD
homer-odyssey-850_04	30	25	}	}	-RRB-
homer-odyssey-850_04	30	26	of	of	IN
homer-odyssey-850_04	30	27	a	a	DT
homer-odyssey-850_04	30	28	stately	stately	JJ
homer-odyssey-850_04	30	29	mansion	mansion	NN
homer-odyssey-850_04	30	30	fully	fully	RB
homer-odyssey-850_04	30	31	and	and	CC
homer-odyssey-850_04	30	32	magnificently	magnificently	RB
homer-odyssey-850_04	30	33	furnished	furnished	JJ
homer-odyssey-850_04	30	34	.	.	.
homer-odyssey-850_04	31	1	Would	would	MD
homer-odyssey-850_04	31	2	that	that	IN
homer-odyssey-850_04	31	3	I	-PRON-	PRP
homer-odyssey-850_04	31	4	had	have	VBD
homer-odyssey-850_04	31	5	only	only	RB
homer-odyssey-850_04	31	6	a	a	DT
homer-odyssey-850_04	31	7	third	third	NN
homer-odyssey-850_04	31	8	of	of	IN
homer-odyssey-850_04	31	9	what	what	WP
homer-odyssey-850_04	31	10	I	-PRON-	PRP
homer-odyssey-850_04	31	11	now	now	RB
homer-odyssey-850_04	31	12	have	have	VBP
homer-odyssey-850_04	31	13	so	so	IN
homer-odyssey-850_04	31	14	that	that	IN
homer-odyssey-850_04	31	15	I	-PRON-	PRP
homer-odyssey-850_04	31	16	had	have	VBD
homer-odyssey-850_04	31	17	stayed	stay	VBN
homer-odyssey-850_04	31	18	at	at	IN
homer-odyssey-850_04	31	19	home	home	NN
homer-odyssey-850_04	31	20	,	,	,
homer-odyssey-850_04	31	21	and	and	CC
homer-odyssey-850_04	31	22	all	all	PDT
homer-odyssey-850_04	31	23	those	those	DT
homer-odyssey-850_04	31	24	were	be	VBD
homer-odyssey-850_04	31	25	living	live	VBG
homer-odyssey-850_04	31	26	who	who	WP
homer-odyssey-850_04	31	27	perished	perish	VBD
homer-odyssey-850_04	31	28	on	on	IN
homer-odyssey-850_04	31	29	the	the	DT
homer-odyssey-850_04	31	30	plain	plain	NN
homer-odyssey-850_04	31	31	of	of	IN
homer-odyssey-850_04	31	32	Troy	troy	NNP
homer-odyssey-850_04	31	33	,	,	,
homer-odyssey-850_04	31	34	far	far	RB
homer-odyssey-850_04	31	35	from	from	IN
homer-odyssey-850_04	31	36	Argos	argos	NNP
homer-odyssey-850_04	31	37	.	.	.
homer-odyssey-850_04	32	1	I	-PRON-	PRP
homer-odyssey-850_04	32	2	often	often	RB
homer-odyssey-850_04	32	3	grieve	grieve	VBP
homer-odyssey-850_04	32	4	,	,	,
homer-odyssey-850_04	32	5	as	as	IN
homer-odyssey-850_04	32	6	I	-PRON-	PRP
homer-odyssey-850_04	32	7	sit	sit	VBP
homer-odyssey-850_04	32	8	here	here	RB
homer-odyssey-850_04	32	9	in	in	IN
homer-odyssey-850_04	32	10	my	-PRON-	PRP$
homer-odyssey-850_04	32	11	house	house	NN
homer-odyssey-850_04	32	12	,	,	,
homer-odyssey-850_04	32	13	for	for	IN
homer-odyssey-850_04	32	14	one	one	CD
homer-odyssey-850_04	32	15	and	and	CC
homer-odyssey-850_04	32	16	all	all	DT
homer-odyssey-850_04	32	17	of	of	IN
homer-odyssey-850_04	32	18	them	-PRON-	PRP
homer-odyssey-850_04	32	19	.	.	.
homer-odyssey-850_04	33	1	At	at	IN
homer-odyssey-850_04	33	2	times	time	NNS
homer-odyssey-850_04	33	3	I	-PRON-	PRP
homer-odyssey-850_04	33	4	cry	cry	VBP
homer-odyssey-850_04	33	5	aloud	aloud	RB
homer-odyssey-850_04	33	6	for	for	IN
homer-odyssey-850_04	33	7	sorrow	sorrow	NN
homer-odyssey-850_04	33	8	,	,	,
homer-odyssey-850_04	33	9	but	but	CC
homer-odyssey-850_04	33	10	presently	presently	RB
homer-odyssey-850_04	33	11	I	-PRON-	PRP
homer-odyssey-850_04	33	12	leave	leave	VBP
homer-odyssey-850_04	33	13	off	off	RP
homer-odyssey-850_04	33	14	again	again	RB
homer-odyssey-850_04	33	15	,	,	,
homer-odyssey-850_04	33	16	for	for	IN
homer-odyssey-850_04	33	17	crying	cry	VBG
homer-odyssey-850_04	33	18	is	be	VBZ
homer-odyssey-850_04	33	19	cold	cold	JJ
homer-odyssey-850_04	33	20	comfort	comfort	NN
homer-odyssey-850_04	33	21	and	and	CC
homer-odyssey-850_04	33	22	one	one	CD
homer-odyssey-850_04	33	23	soon	soon	RB
homer-odyssey-850_04	33	24	tires	tire	NNS
homer-odyssey-850_04	33	25	of	of	IN
homer-odyssey-850_04	33	26	it	-PRON-	PRP
homer-odyssey-850_04	33	27	.	.	.
homer-odyssey-850_04	34	1	Yet	yet	RB
homer-odyssey-850_04	34	2	grieve	grieve	VB
homer-odyssey-850_04	34	3	for	for	IN
homer-odyssey-850_04	34	4	these	these	DT
homer-odyssey-850_04	34	5	as	as	IN
homer-odyssey-850_04	34	6	I	-PRON-	PRP
homer-odyssey-850_04	34	7	may	may	MD
homer-odyssey-850_04	34	8	,	,	,
homer-odyssey-850_04	34	9	I	-PRON-	PRP
homer-odyssey-850_04	34	10	do	do	VBP
homer-odyssey-850_04	34	11	so	so	RB
homer-odyssey-850_04	34	12	for	for	IN
homer-odyssey-850_04	34	13	one	one	CD
homer-odyssey-850_04	34	14	man	man	NN
homer-odyssey-850_04	34	15	more	more	JJR
homer-odyssey-850_04	34	16	than	than	IN
homer-odyssey-850_04	34	17	for	for	IN
homer-odyssey-850_04	34	18	them	-PRON-	PRP
homer-odyssey-850_04	34	19	all	all	DT
homer-odyssey-850_04	34	20	.	.	.
homer-odyssey-850_04	35	1	I	-PRON-	PRP
homer-odyssey-850_04	35	2	can	can	MD
homer-odyssey-850_04	35	3	not	not	RB
homer-odyssey-850_04	35	4	even	even	RB
homer-odyssey-850_04	35	5	think	think	VB
homer-odyssey-850_04	35	6	of	of	IN
homer-odyssey-850_04	35	7	him	-PRON-	PRP
homer-odyssey-850_04	35	8	without	without	IN
homer-odyssey-850_04	35	9	loathing	loathe	VBG
homer-odyssey-850_04	35	10	both	both	DT
homer-odyssey-850_04	35	11	food	food	NN
homer-odyssey-850_04	35	12	and	and	CC
homer-odyssey-850_04	35	13	sleep	sleep	NN
homer-odyssey-850_04	35	14	,	,	,
homer-odyssey-850_04	35	15	so	so	RB
homer-odyssey-850_04	35	16	miserable	miserable	JJ
homer-odyssey-850_04	35	17	does	do	VBZ
homer-odyssey-850_04	35	18	he	-PRON-	PRP
homer-odyssey-850_04	35	19	make	make	VB
homer-odyssey-850_04	35	20	me	-PRON-	PRP
homer-odyssey-850_04	35	21	,	,	,
homer-odyssey-850_04	35	22	for	for	IN
homer-odyssey-850_04	35	23	no	no	DT
homer-odyssey-850_04	35	24	one	one	NN
homer-odyssey-850_04	35	25	of	of	IN
homer-odyssey-850_04	35	26	all	all	PDT
homer-odyssey-850_04	35	27	the	the	DT
homer-odyssey-850_04	35	28	Achaeans	achaeans	NNPS
homer-odyssey-850_04	35	29	worked	work	VBD
homer-odyssey-850_04	35	30	so	so	RB
homer-odyssey-850_04	35	31	hard	hard	RB
homer-odyssey-850_04	35	32	or	or	CC
homer-odyssey-850_04	35	33	risked	risk	VBD
homer-odyssey-850_04	35	34	so	so	RB
homer-odyssey-850_04	35	35	much	much	RB
homer-odyssey-850_04	35	36	as	as	IN
homer-odyssey-850_04	35	37	he	-PRON-	PRP
homer-odyssey-850_04	35	38	did	do	VBD
homer-odyssey-850_04	35	39	.	.	.
homer-odyssey-850_04	36	1	He	-PRON-	PRP
homer-odyssey-850_04	36	2	took	take	VBD
homer-odyssey-850_04	36	3	nothing	nothing	NN
homer-odyssey-850_04	36	4	by	by	IN
homer-odyssey-850_04	36	5	it	-PRON-	PRP
homer-odyssey-850_04	36	6	,	,	,
homer-odyssey-850_04	36	7	and	and	CC
homer-odyssey-850_04	36	8	has	have	VBZ
homer-odyssey-850_04	36	9	left	leave	VBN
homer-odyssey-850_04	36	10	a	a	DT
homer-odyssey-850_04	36	11	legacy	legacy	NN
homer-odyssey-850_04	36	12	of	of	IN
homer-odyssey-850_04	36	13	sorrow	sorrow	NN
homer-odyssey-850_04	36	14	to	to	IN
homer-odyssey-850_04	36	15	myself	-PRON-	PRP
homer-odyssey-850_04	36	16	,	,	,
homer-odyssey-850_04	36	17	for	for	IN
homer-odyssey-850_04	36	18	he	-PRON-	PRP
homer-odyssey-850_04	36	19	has	have	VBZ
homer-odyssey-850_04	36	20	been	be	VBN
homer-odyssey-850_04	36	21	gone	go	VBN
homer-odyssey-850_04	36	22	a	a	DT
homer-odyssey-850_04	36	23	long	long	JJ
homer-odyssey-850_04	36	24	time	time	NN
homer-odyssey-850_04	36	25	,	,	,
homer-odyssey-850_04	36	26	and	and	CC
homer-odyssey-850_04	36	27	we	-PRON-	PRP
homer-odyssey-850_04	36	28	know	know	VBP
homer-odyssey-850_04	36	29	not	not	RB
homer-odyssey-850_04	36	30	whether	whether	IN
homer-odyssey-850_04	36	31	he	-PRON-	PRP
homer-odyssey-850_04	36	32	is	be	VBZ
homer-odyssey-850_04	36	33	alive	alive	JJ
homer-odyssey-850_04	36	34	or	or	CC
homer-odyssey-850_04	36	35	dead	dead	JJ
homer-odyssey-850_04	36	36	.	.	.
homer-odyssey-850_04	37	1	His	-PRON-	PRP$
homer-odyssey-850_04	37	2	old	old	JJ
homer-odyssey-850_04	37	3	father	father	NN
homer-odyssey-850_04	37	4	,	,	,
homer-odyssey-850_04	37	5	his	-PRON-	PRP$
homer-odyssey-850_04	37	6	long-	long-	JJ
homer-odyssey-850_04	37	7	suffering	suffer	VBG
homer-odyssey-850_04	37	8	wife	wife	NN
homer-odyssey-850_04	37	9	Penelope	penelope	NNP
homer-odyssey-850_04	37	10	,	,	,
homer-odyssey-850_04	37	11	and	and	CC
homer-odyssey-850_04	37	12	his	-PRON-	PRP$
homer-odyssey-850_04	37	13	son	son	NN
homer-odyssey-850_04	37	14	Telemachus	telemachus	NNP
homer-odyssey-850_04	37	15	,	,	,
homer-odyssey-850_04	37	16	whom	whom	WP
homer-odyssey-850_04	37	17	he	-PRON-	PRP
homer-odyssey-850_04	37	18	left	leave	VBD
homer-odyssey-850_04	37	19	behind	behind	IN
homer-odyssey-850_04	37	20	him	-PRON-	PRP
homer-odyssey-850_04	37	21	an	an	DT
homer-odyssey-850_04	37	22	infant	infant	NN
homer-odyssey-850_04	37	23	in	in	IN
homer-odyssey-850_04	37	24	arms	arm	NNS
homer-odyssey-850_04	37	25	,	,	,
homer-odyssey-850_04	37	26	are	be	VBP
homer-odyssey-850_04	37	27	plunged	plunge	VBN
homer-odyssey-850_04	37	28	in	in	IN
homer-odyssey-850_04	37	29	grief	grief	NN
homer-odyssey-850_04	37	30	on	on	IN
homer-odyssey-850_04	37	31	his	-PRON-	PRP$
homer-odyssey-850_04	37	32	account	account	NN
homer-odyssey-850_04	37	33	.	.	.
homer-odyssey-850_04	37	34	"	"	''
homer-odyssey-850_04	38	1	Thus	thus	RB
homer-odyssey-850_04	38	2	spoke	speak	VBD
homer-odyssey-850_04	38	3	Menelaus	menelaus	NNP
homer-odyssey-850_04	38	4	,	,	,
homer-odyssey-850_04	38	5	and	and	CC
homer-odyssey-850_04	38	6	the	the	DT
homer-odyssey-850_04	38	7	heart	heart	NN
homer-odyssey-850_04	38	8	of	of	IN
homer-odyssey-850_04	38	9	Telemachus	telemachus	NNP
homer-odyssey-850_04	38	10	yearned	yearn	VBD
homer-odyssey-850_04	38	11	as	as	IN
homer-odyssey-850_04	38	12	he	-PRON-	PRP
homer-odyssey-850_04	38	13	bethought	bethink	VBD
homer-odyssey-850_04	38	14	him	-PRON-	PRP
homer-odyssey-850_04	38	15	of	of	IN
homer-odyssey-850_04	38	16	his	-PRON-	PRP$
homer-odyssey-850_04	38	17	father	father	NN
homer-odyssey-850_04	38	18	.	.	.
homer-odyssey-850_04	39	1	Tears	tear	NNS
homer-odyssey-850_04	39	2	fell	fall	VBD
homer-odyssey-850_04	39	3	from	from	IN
homer-odyssey-850_04	39	4	his	-PRON-	PRP$
homer-odyssey-850_04	39	5	eyes	eye	NNS
homer-odyssey-850_04	39	6	as	as	IN
homer-odyssey-850_04	39	7	he	-PRON-	PRP
homer-odyssey-850_04	39	8	heard	hear	VBD
homer-odyssey-850_04	39	9	him	-PRON-	PRP
homer-odyssey-850_04	39	10	thus	thus	RB
homer-odyssey-850_04	39	11	mentioned	mention	VBN
homer-odyssey-850_04	39	12	,	,	,
homer-odyssey-850_04	39	13	so	so	IN
homer-odyssey-850_04	39	14	that	that	IN
homer-odyssey-850_04	39	15	he	-PRON-	PRP
homer-odyssey-850_04	39	16	held	hold	VBD
homer-odyssey-850_04	39	17	his	-PRON-	PRP$
homer-odyssey-850_04	39	18	cloak	cloak	NN
homer-odyssey-850_04	39	19	before	before	IN
homer-odyssey-850_04	39	20	his	-PRON-	PRP$
homer-odyssey-850_04	39	21	face	face	NN
homer-odyssey-850_04	39	22	with	with	IN
homer-odyssey-850_04	39	23	both	both	DT
homer-odyssey-850_04	39	24	hands	hand	NNS
homer-odyssey-850_04	39	25	.	.	.
homer-odyssey-850_04	40	1	When	when	WRB
homer-odyssey-850_04	40	2	Menelaus	menelaus	NNP
homer-odyssey-850_04	40	3	saw	see	VBD
homer-odyssey-850_04	40	4	this	this	DT
homer-odyssey-850_04	40	5	he	-PRON-	PRP
homer-odyssey-850_04	40	6	doubted	doubt	VBD
homer-odyssey-850_04	40	7	whether	whether	IN
homer-odyssey-850_04	40	8	to	to	TO
homer-odyssey-850_04	40	9	let	let	VB
homer-odyssey-850_04	40	10	him	-PRON-	PRP
homer-odyssey-850_04	40	11	choose	choose	VB
homer-odyssey-850_04	40	12	his	-PRON-	PRP$
homer-odyssey-850_04	40	13	own	own	JJ
homer-odyssey-850_04	40	14	time	time	NN
homer-odyssey-850_04	40	15	for	for	IN
homer-odyssey-850_04	40	16	speaking	speak	VBG
homer-odyssey-850_04	40	17	,	,	,
homer-odyssey-850_04	40	18	or	or	CC
homer-odyssey-850_04	40	19	to	to	TO
homer-odyssey-850_04	40	20	ask	ask	VB
homer-odyssey-850_04	40	21	him	-PRON-	PRP
homer-odyssey-850_04	40	22	at	at	IN
homer-odyssey-850_04	40	23	once	once	RB
homer-odyssey-850_04	40	24	and	and	CC
homer-odyssey-850_04	40	25	find	find	VB
homer-odyssey-850_04	40	26	what	what	WP
homer-odyssey-850_04	40	27	it	-PRON-	PRP
homer-odyssey-850_04	40	28	was	be	VBD
homer-odyssey-850_04	40	29	all	all	RB
homer-odyssey-850_04	40	30	about	about	IN
homer-odyssey-850_04	40	31	.	.	.
homer-odyssey-850_04	41	1	While	while	IN
homer-odyssey-850_04	41	2	he	-PRON-	PRP
homer-odyssey-850_04	41	3	was	be	VBD
homer-odyssey-850_04	41	4	thus	thus	RB
homer-odyssey-850_04	41	5	in	in	IN
homer-odyssey-850_04	41	6	two	two	CD
homer-odyssey-850_04	41	7	minds	mind	NNS
homer-odyssey-850_04	41	8	Helen	helen	NNP
homer-odyssey-850_04	41	9	came	come	VBD
homer-odyssey-850_04	41	10	down	down	RP
homer-odyssey-850_04	41	11	from	from	IN
homer-odyssey-850_04	41	12	her	-PRON-	PRP$
homer-odyssey-850_04	41	13	high	high	JJ
homer-odyssey-850_04	41	14	vaulted	vault	VBN
homer-odyssey-850_04	41	15	and	and	CC
homer-odyssey-850_04	41	16	perfumed	perfumed	JJ
homer-odyssey-850_04	41	17	room	room	NN
homer-odyssey-850_04	41	18	,	,	,
homer-odyssey-850_04	41	19	looking	look	VBG
homer-odyssey-850_04	41	20	as	as	RB
homer-odyssey-850_04	41	21	lovely	lovely	JJ
homer-odyssey-850_04	41	22	as	as	IN
homer-odyssey-850_04	41	23	Diana	diana	NNP
homer-odyssey-850_04	41	24	herself	-PRON-	PRP
homer-odyssey-850_04	41	25	.	.	.
homer-odyssey-850_04	42	1	Adraste	adraste	NNP
homer-odyssey-850_04	42	2	brought	bring	VBD
homer-odyssey-850_04	42	3	her	-PRON-	PRP
homer-odyssey-850_04	42	4	a	a	DT
homer-odyssey-850_04	42	5	seat	seat	NN
homer-odyssey-850_04	42	6	,	,	,
homer-odyssey-850_04	42	7	Alcippe	alcippe	NNP
homer-odyssey-850_04	42	8	a	a	DT
homer-odyssey-850_04	42	9	soft	soft	JJ
homer-odyssey-850_04	42	10	woollen	woollen	JJ
homer-odyssey-850_04	42	11	rug	rug	NN
homer-odyssey-850_04	42	12	while	while	IN
homer-odyssey-850_04	42	13	Phylo	phylo	NNP
homer-odyssey-850_04	42	14	fetched	fetch	VBD
homer-odyssey-850_04	42	15	her	-PRON-	PRP
homer-odyssey-850_04	42	16	the	the	DT
homer-odyssey-850_04	42	17	silver	silver	NN
homer-odyssey-850_04	42	18	work-	work-	JJ
homer-odyssey-850_04	42	19	box	box	NN
homer-odyssey-850_04	42	20	which	which	WDT
homer-odyssey-850_04	42	21	Alcandra	alcandra	NNP
homer-odyssey-850_04	42	22	wife	wife	NN
homer-odyssey-850_04	42	23	of	of	IN
homer-odyssey-850_04	42	24	Polybus	polybus	NNP
homer-odyssey-850_04	42	25	had	have	VBD
homer-odyssey-850_04	42	26	given	give	VBN
homer-odyssey-850_04	42	27	her	-PRON-	PRP
homer-odyssey-850_04	42	28	.	.	.
homer-odyssey-850_04	43	1	Polybus	polybus	NNP
homer-odyssey-850_04	43	2	lived	live	VBD
homer-odyssey-850_04	43	3	in	in	IN
homer-odyssey-850_04	43	4	Egyptian	egyptian	NNP
homer-odyssey-850_04	43	5	Thebes	thebes	NNP
homer-odyssey-850_04	43	6	,	,	,
homer-odyssey-850_04	43	7	which	which	WDT
homer-odyssey-850_04	43	8	is	be	VBZ
homer-odyssey-850_04	43	9	the	the	DT
homer-odyssey-850_04	43	10	richest	rich	JJS
homer-odyssey-850_04	43	11	city	city	NN
homer-odyssey-850_04	43	12	in	in	IN
homer-odyssey-850_04	43	13	the	the	DT
homer-odyssey-850_04	43	14	whole	whole	JJ
homer-odyssey-850_04	43	15	world	world	NN
homer-odyssey-850_04	43	16	;	;	:
homer-odyssey-850_04	43	17	he	-PRON-	PRP
homer-odyssey-850_04	43	18	gave	give	VBD
homer-odyssey-850_04	43	19	Menelaus	menelaus	NNP
homer-odyssey-850_04	43	20	two	two	CD
homer-odyssey-850_04	43	21	baths	bath	NNS
homer-odyssey-850_04	43	22	,	,	,
homer-odyssey-850_04	43	23	both	both	DT
homer-odyssey-850_04	43	24	of	of	IN
homer-odyssey-850_04	43	25	pure	pure	JJ
homer-odyssey-850_04	43	26	silver	silver	NN
homer-odyssey-850_04	43	27	,	,	,
homer-odyssey-850_04	43	28	two	two	CD
homer-odyssey-850_04	43	29	tripods	tripod	NNS
homer-odyssey-850_04	43	30	,	,	,
homer-odyssey-850_04	43	31	and	and	CC
homer-odyssey-850_04	43	32	ten	ten	CD
homer-odyssey-850_04	43	33	talents	talent	NNS
homer-odyssey-850_04	43	34	of	of	IN
homer-odyssey-850_04	43	35	gold	gold	NN
homer-odyssey-850_04	43	36	;	;	:
homer-odyssey-850_04	43	37	besides	besides	IN
homer-odyssey-850_04	43	38	all	all	PDT
homer-odyssey-850_04	43	39	this	this	DT
homer-odyssey-850_04	43	40	,	,	,
homer-odyssey-850_04	43	41	his	-PRON-	PRP$
homer-odyssey-850_04	43	42	wife	wife	NN
homer-odyssey-850_04	43	43	gave	give	VBD
homer-odyssey-850_04	43	44	Helen	helen	NNP
homer-odyssey-850_04	43	45	some	some	DT
homer-odyssey-850_04	43	46	beautiful	beautiful	JJ
homer-odyssey-850_04	43	47	presents	present	NNS
homer-odyssey-850_04	43	48	,	,	,
homer-odyssey-850_04	43	49	to	to	IN
homer-odyssey-850_04	43	50	wit	wit	NN
homer-odyssey-850_04	43	51	,	,	,
homer-odyssey-850_04	43	52	a	a	DT
homer-odyssey-850_04	43	53	golden	golden	JJ
homer-odyssey-850_04	43	54	distaff	distaff	NN
homer-odyssey-850_04	43	55	,	,	,
homer-odyssey-850_04	43	56	and	and	CC
homer-odyssey-850_04	43	57	a	a	DT
homer-odyssey-850_04	43	58	silver	silver	JJ
homer-odyssey-850_04	43	59	work	work	NN
homer-odyssey-850_04	43	60	box	box	NN
homer-odyssey-850_04	43	61	that	that	WDT
homer-odyssey-850_04	43	62	ran	run	VBD
homer-odyssey-850_04	43	63	on	on	IN
homer-odyssey-850_04	43	64	wheels	wheel	NNS
homer-odyssey-850_04	43	65	,	,	,
homer-odyssey-850_04	43	66	with	with	IN
homer-odyssey-850_04	43	67	a	a	DT
homer-odyssey-850_04	43	68	gold	gold	JJ
homer-odyssey-850_04	43	69	band	band	NN
homer-odyssey-850_04	43	70	round	round	IN
homer-odyssey-850_04	43	71	the	the	DT
homer-odyssey-850_04	43	72	top	top	NN
homer-odyssey-850_04	43	73	of	of	IN
homer-odyssey-850_04	43	74	it	-PRON-	PRP
homer-odyssey-850_04	43	75	.	.	.
homer-odyssey-850_04	44	1	Phylo	phylo	NNP
homer-odyssey-850_04	44	2	now	now	RB
homer-odyssey-850_04	44	3	placed	place	VBD
homer-odyssey-850_04	44	4	this	this	DT
homer-odyssey-850_04	44	5	by	by	IN
homer-odyssey-850_04	44	6	her	-PRON-	PRP$
homer-odyssey-850_04	44	7	side	side	NN
homer-odyssey-850_04	44	8	,	,	,
homer-odyssey-850_04	44	9	full	full	JJ
homer-odyssey-850_04	44	10	of	of	IN
homer-odyssey-850_04	44	11	fine	fine	JJ
homer-odyssey-850_04	44	12	spun	spin	VBN
homer-odyssey-850_04	44	13	yarn	yarn	NN
homer-odyssey-850_04	44	14	,	,	,
homer-odyssey-850_04	44	15	and	and	CC
homer-odyssey-850_04	44	16	a	a	DT
homer-odyssey-850_04	44	17	distaff	distaff	NN
homer-odyssey-850_04	44	18	charged	charge	VBN
homer-odyssey-850_04	44	19	with	with	IN
homer-odyssey-850_04	44	20	violet	violet	NN
homer-odyssey-850_04	44	21	coloured	colour	VBN
homer-odyssey-850_04	44	22	wool	wool	NN
homer-odyssey-850_04	44	23	was	be	VBD
homer-odyssey-850_04	44	24	laid	lay	VBN
homer-odyssey-850_04	44	25	upon	upon	IN
homer-odyssey-850_04	44	26	the	the	DT
homer-odyssey-850_04	44	27	top	top	NN
homer-odyssey-850_04	44	28	of	of	IN
homer-odyssey-850_04	44	29	it	-PRON-	PRP
homer-odyssey-850_04	44	30	.	.	.
homer-odyssey-850_04	45	1	Then	then	RB
homer-odyssey-850_04	45	2	Helen	helen	NNP
homer-odyssey-850_04	45	3	took	take	VBD
homer-odyssey-850_04	45	4	her	-PRON-	PRP$
homer-odyssey-850_04	45	5	seat	seat	NN
homer-odyssey-850_04	45	6	,	,	,
homer-odyssey-850_04	45	7	put	put	VB
homer-odyssey-850_04	45	8	her	-PRON-	PRP$
homer-odyssey-850_04	45	9	feet	foot	NNS
homer-odyssey-850_04	45	10	upon	upon	IN
homer-odyssey-850_04	45	11	the	the	DT
homer-odyssey-850_04	45	12	footstool	footstool	NN
homer-odyssey-850_04	45	13	,	,	,
homer-odyssey-850_04	45	14	and	and	CC
homer-odyssey-850_04	45	15	began	begin	VBD
homer-odyssey-850_04	45	16	to	to	TO
homer-odyssey-850_04	45	17	question	question	VB
homer-odyssey-850_04	45	18	her	-PRON-	PRP$
homer-odyssey-850_04	45	19	husband	husband	NN
homer-odyssey-850_04	45	20	.	.	.
homer-odyssey-850_04	46	1	{	{	-LRB-
homer-odyssey-850_04	46	2	42	42	CD
homer-odyssey-850_04	46	3	}	}	-RRB-
homer-odyssey-850_04	46	4	"	"	``
homer-odyssey-850_04	46	5	Do	do	VBP
homer-odyssey-850_04	46	6	we	-PRON-	PRP
homer-odyssey-850_04	46	7	know	know	VB
homer-odyssey-850_04	46	8	,	,	,
homer-odyssey-850_04	46	9	Menelaus	menelaus	NNP
homer-odyssey-850_04	46	10	,	,	,
homer-odyssey-850_04	46	11	"	"	''
homer-odyssey-850_04	46	12	said	say	VBD
homer-odyssey-850_04	46	13	she	-PRON-	PRP
homer-odyssey-850_04	46	14	,	,	,
homer-odyssey-850_04	46	15	"	"	``
homer-odyssey-850_04	46	16	the	the	DT
homer-odyssey-850_04	46	17	names	name	NNS
homer-odyssey-850_04	46	18	of	of	IN
homer-odyssey-850_04	46	19	these	these	DT
homer-odyssey-850_04	46	20	strangers	stranger	NNS
homer-odyssey-850_04	46	21	who	who	WP
homer-odyssey-850_04	46	22	have	have	VBP
homer-odyssey-850_04	46	23	come	come	VBN
homer-odyssey-850_04	46	24	to	to	TO
homer-odyssey-850_04	46	25	visit	visit	VB
homer-odyssey-850_04	46	26	us	-PRON-	PRP
homer-odyssey-850_04	46	27	?	?	.
homer-odyssey-850_04	47	1	Shall	shall	MD
homer-odyssey-850_04	47	2	I	-PRON-	PRP
homer-odyssey-850_04	47	3	guess	guess	VB
homer-odyssey-850_04	47	4	right	right	UH
homer-odyssey-850_04	47	5	or	or	CC
homer-odyssey-850_04	47	6	wrong?--	wrong?--	UH
homer-odyssey-850_04	47	7	but	but	CC
homer-odyssey-850_04	47	8	I	-PRON-	PRP
homer-odyssey-850_04	47	9	can	can	MD
homer-odyssey-850_04	47	10	not	not	RB
homer-odyssey-850_04	47	11	help	help	VB
homer-odyssey-850_04	47	12	saying	say	VBG
homer-odyssey-850_04	47	13	what	what	WP
homer-odyssey-850_04	47	14	I	-PRON-	PRP
homer-odyssey-850_04	47	15	think	think	VBP
homer-odyssey-850_04	47	16	.	.	.
homer-odyssey-850_04	48	1	Never	never	RB
homer-odyssey-850_04	48	2	yet	yet	RB
homer-odyssey-850_04	48	3	have	have	VBP
homer-odyssey-850_04	48	4	I	-PRON-	PRP
homer-odyssey-850_04	48	5	seen	see	VBN
homer-odyssey-850_04	48	6	either	either	DT
homer-odyssey-850_04	48	7	man	man	NN
homer-odyssey-850_04	48	8	or	or	CC
homer-odyssey-850_04	48	9	woman	woman	NN
homer-odyssey-850_04	48	10	so	so	RB
homer-odyssey-850_04	48	11	like	like	IN
homer-odyssey-850_04	48	12	somebody	somebody	NN
homer-odyssey-850_04	48	13	else	else	RB
homer-odyssey-850_04	48	14	(	(	-LRB-
homer-odyssey-850_04	48	15	indeed	indeed	RB
homer-odyssey-850_04	48	16	when	when	WRB
homer-odyssey-850_04	48	17	I	-PRON-	PRP
homer-odyssey-850_04	48	18	look	look	VBP
homer-odyssey-850_04	48	19	at	at	IN
homer-odyssey-850_04	48	20	him	-PRON-	PRP
homer-odyssey-850_04	48	21	I	-PRON-	PRP
homer-odyssey-850_04	48	22	hardly	hardly	RB
homer-odyssey-850_04	48	23	know	know	VBP
homer-odyssey-850_04	48	24	what	what	WP
homer-odyssey-850_04	48	25	to	to	TO
homer-odyssey-850_04	48	26	think	think	VB
homer-odyssey-850_04	48	27	)	)	-RRB-
homer-odyssey-850_04	48	28	as	as	IN
homer-odyssey-850_04	48	29	this	this	DT
homer-odyssey-850_04	48	30	young	young	JJ
homer-odyssey-850_04	48	31	man	man	NN
homer-odyssey-850_04	48	32	is	be	VBZ
homer-odyssey-850_04	48	33	like	like	IN
homer-odyssey-850_04	48	34	Telemachus	telemachus	NNP
homer-odyssey-850_04	48	35	,	,	,
homer-odyssey-850_04	48	36	whom	whom	WP
homer-odyssey-850_04	48	37	Ulysses	ulyss	NNS
homer-odyssey-850_04	48	38	left	leave	VBD
homer-odyssey-850_04	48	39	as	as	IN
homer-odyssey-850_04	48	40	a	a	DT
homer-odyssey-850_04	48	41	baby	baby	NN
homer-odyssey-850_04	48	42	behind	behind	IN
homer-odyssey-850_04	48	43	him	-PRON-	PRP
homer-odyssey-850_04	48	44	,	,	,
homer-odyssey-850_04	48	45	when	when	WRB
homer-odyssey-850_04	48	46	you	-PRON-	PRP
homer-odyssey-850_04	48	47	Achaeans	achaeans	NNPS
homer-odyssey-850_04	48	48	went	go	VBD
homer-odyssey-850_04	48	49	to	to	IN
homer-odyssey-850_04	48	50	Troy	troy	NNP
homer-odyssey-850_04	48	51	with	with	IN
homer-odyssey-850_04	48	52	battle	battle	NN
homer-odyssey-850_04	48	53	in	in	IN
homer-odyssey-850_04	48	54	your	-PRON-	PRP$
homer-odyssey-850_04	48	55	hearts	heart	NNS
homer-odyssey-850_04	48	56	,	,	,
homer-odyssey-850_04	48	57	on	on	IN
homer-odyssey-850_04	48	58	account	account	NN
homer-odyssey-850_04	48	59	of	of	IN
homer-odyssey-850_04	48	60	my	-PRON-	PRP$
homer-odyssey-850_04	48	61	most	most	RBS
homer-odyssey-850_04	48	62	shameless	shameless	JJ
homer-odyssey-850_04	48	63	self	self	NN
homer-odyssey-850_04	48	64	.	.	.
homer-odyssey-850_04	48	65	"	"	''
homer-odyssey-850_04	49	1	"	"	``
homer-odyssey-850_04	49	2	My	-PRON-	PRP$
homer-odyssey-850_04	49	3	dear	dear	JJ
homer-odyssey-850_04	49	4	wife	wife	NN
homer-odyssey-850_04	49	5	,	,	,
homer-odyssey-850_04	49	6	"	"	``
homer-odyssey-850_04	49	7	replied	reply	VBD
homer-odyssey-850_04	49	8	Menelaus	menelaus	NNP
homer-odyssey-850_04	49	9	,	,	,
homer-odyssey-850_04	49	10	"	"	''
homer-odyssey-850_04	49	11	I	-PRON-	PRP
homer-odyssey-850_04	49	12	see	see	VBP
homer-odyssey-850_04	49	13	the	the	DT
homer-odyssey-850_04	49	14	likeness	likeness	NN
homer-odyssey-850_04	49	15	just	just	RB
homer-odyssey-850_04	49	16	as	as	IN
homer-odyssey-850_04	49	17	you	-PRON-	PRP
homer-odyssey-850_04	49	18	do	do	VBP
homer-odyssey-850_04	49	19	.	.	.
homer-odyssey-850_04	50	1	His	-PRON-	PRP$
homer-odyssey-850_04	50	2	hands	hand	NNS
homer-odyssey-850_04	50	3	and	and	CC
homer-odyssey-850_04	50	4	feet	foot	NNS
homer-odyssey-850_04	50	5	are	be	VBP
homer-odyssey-850_04	50	6	just	just	RB
homer-odyssey-850_04	50	7	like	like	IN
homer-odyssey-850_04	50	8	Ulysses	ulyss	NNS
homer-odyssey-850_04	50	9	;	;	:
homer-odyssey-850_04	50	10	so	so	RB
homer-odyssey-850_04	50	11	is	be	VBZ
homer-odyssey-850_04	50	12	his	-PRON-	PRP$
homer-odyssey-850_04	50	13	hair	hair	NN
homer-odyssey-850_04	50	14	,	,	,
homer-odyssey-850_04	50	15	with	with	IN
homer-odyssey-850_04	50	16	the	the	DT
homer-odyssey-850_04	50	17	shape	shape	NN
homer-odyssey-850_04	50	18	of	of	IN
homer-odyssey-850_04	50	19	his	-PRON-	PRP$
homer-odyssey-850_04	50	20	head	head	NN
homer-odyssey-850_04	50	21	and	and	CC
homer-odyssey-850_04	50	22	the	the	DT
homer-odyssey-850_04	50	23	expression	expression	NN
homer-odyssey-850_04	50	24	of	of	IN
homer-odyssey-850_04	50	25	his	-PRON-	PRP$
homer-odyssey-850_04	50	26	eyes	eye	NNS
homer-odyssey-850_04	50	27	.	.	.
homer-odyssey-850_04	51	1	Moreover	moreover	RB
homer-odyssey-850_04	51	2	,	,	,
homer-odyssey-850_04	51	3	when	when	WRB
homer-odyssey-850_04	51	4	I	-PRON-	PRP
homer-odyssey-850_04	51	5	was	be	VBD
homer-odyssey-850_04	51	6	talking	talk	VBG
homer-odyssey-850_04	51	7	about	about	IN
homer-odyssey-850_04	51	8	Ulysses	ulysses	NNPS
homer-odyssey-850_04	51	9	,	,	,
homer-odyssey-850_04	51	10	and	and	CC
homer-odyssey-850_04	51	11	saying	say	VBG
homer-odyssey-850_04	51	12	how	how	WRB
homer-odyssey-850_04	51	13	much	much	RB
homer-odyssey-850_04	51	14	he	-PRON-	PRP
homer-odyssey-850_04	51	15	had	have	VBD
homer-odyssey-850_04	51	16	suffered	suffer	VBN
homer-odyssey-850_04	51	17	on	on	IN
homer-odyssey-850_04	51	18	my	-PRON-	PRP$
homer-odyssey-850_04	51	19	account	account	NN
homer-odyssey-850_04	51	20	,	,	,
homer-odyssey-850_04	51	21	tears	tear	NNS
homer-odyssey-850_04	51	22	fell	fall	VBD
homer-odyssey-850_04	51	23	from	from	IN
homer-odyssey-850_04	51	24	his	-PRON-	PRP$
homer-odyssey-850_04	51	25	eyes	eye	NNS
homer-odyssey-850_04	51	26	,	,	,
homer-odyssey-850_04	51	27	and	and	CC
homer-odyssey-850_04	51	28	he	-PRON-	PRP
homer-odyssey-850_04	51	29	hid	hide	VBD
homer-odyssey-850_04	51	30	his	-PRON-	PRP$
homer-odyssey-850_04	51	31	face	face	NN
homer-odyssey-850_04	51	32	in	in	IN
homer-odyssey-850_04	51	33	his	-PRON-	PRP$
homer-odyssey-850_04	51	34	mantle	mantle	NN
homer-odyssey-850_04	51	35	.	.	.
homer-odyssey-850_04	51	36	"	"	''
homer-odyssey-850_04	52	1	Then	then	RB
homer-odyssey-850_04	52	2	Pisistratus	pisistratus	NNP
homer-odyssey-850_04	52	3	said	say	VBD
homer-odyssey-850_04	52	4	,	,	,
homer-odyssey-850_04	52	5	"	"	``
homer-odyssey-850_04	52	6	Menelaus	menelaus	NNP
homer-odyssey-850_04	52	7	,	,	,
homer-odyssey-850_04	52	8	son	son	NN
homer-odyssey-850_04	52	9	of	of	IN
homer-odyssey-850_04	52	10	Atreus	atreus	NNP
homer-odyssey-850_04	52	11	,	,	,
homer-odyssey-850_04	52	12	you	-PRON-	PRP
homer-odyssey-850_04	52	13	are	be	VBP
homer-odyssey-850_04	52	14	right	right	JJ
homer-odyssey-850_04	52	15	in	in	IN
homer-odyssey-850_04	52	16	thinking	think	VBG
homer-odyssey-850_04	52	17	that	that	IN
homer-odyssey-850_04	52	18	this	this	DT
homer-odyssey-850_04	52	19	young	young	JJ
homer-odyssey-850_04	52	20	man	man	NN
homer-odyssey-850_04	52	21	is	be	VBZ
homer-odyssey-850_04	52	22	Telemachus	telemachus	NNP
homer-odyssey-850_04	52	23	,	,	,
homer-odyssey-850_04	52	24	but	but	CC
homer-odyssey-850_04	52	25	he	-PRON-	PRP
homer-odyssey-850_04	52	26	is	be	VBZ
homer-odyssey-850_04	52	27	very	very	RB
homer-odyssey-850_04	52	28	modest	modest	JJ
homer-odyssey-850_04	52	29	,	,	,
homer-odyssey-850_04	52	30	and	and	CC
homer-odyssey-850_04	52	31	is	be	VBZ
homer-odyssey-850_04	52	32	ashamed	ashamed	JJ
homer-odyssey-850_04	52	33	to	to	TO
homer-odyssey-850_04	52	34	come	come	VB
homer-odyssey-850_04	52	35	here	here	RB
homer-odyssey-850_04	52	36	and	and	CC
homer-odyssey-850_04	52	37	begin	begin	VB
homer-odyssey-850_04	52	38	opening	open	VBG
homer-odyssey-850_04	52	39	up	up	RP
homer-odyssey-850_04	52	40	discourse	discourse	NN
homer-odyssey-850_04	52	41	with	with	IN
homer-odyssey-850_04	52	42	one	one	CD
homer-odyssey-850_04	52	43	whose	whose	WP$
homer-odyssey-850_04	52	44	conversation	conversation	NN
homer-odyssey-850_04	52	45	is	be	VBZ
homer-odyssey-850_04	52	46	so	so	RB
homer-odyssey-850_04	52	47	divinely	divinely	RB
homer-odyssey-850_04	52	48	interesting	interesting	JJ
homer-odyssey-850_04	52	49	as	as	IN
homer-odyssey-850_04	52	50	your	-PRON-	PRP$
homer-odyssey-850_04	52	51	own	own	JJ
homer-odyssey-850_04	52	52	.	.	.
homer-odyssey-850_04	53	1	My	-PRON-	PRP$
homer-odyssey-850_04	53	2	father	father	NN
homer-odyssey-850_04	53	3	,	,	,
homer-odyssey-850_04	53	4	Nestor	nestor	NNP
homer-odyssey-850_04	53	5	,	,	,
homer-odyssey-850_04	53	6	sent	send	VBD
homer-odyssey-850_04	53	7	me	-PRON-	PRP
homer-odyssey-850_04	53	8	to	to	TO
homer-odyssey-850_04	53	9	escort	escort	VB
homer-odyssey-850_04	53	10	him	-PRON-	PRP
homer-odyssey-850_04	53	11	hither	hither	NN
homer-odyssey-850_04	53	12	,	,	,
homer-odyssey-850_04	53	13	for	for	IN
homer-odyssey-850_04	53	14	he	-PRON-	PRP
homer-odyssey-850_04	53	15	wanted	want	VBD
homer-odyssey-850_04	53	16	to	to	TO
homer-odyssey-850_04	53	17	know	know	VB
homer-odyssey-850_04	53	18	whether	whether	IN
homer-odyssey-850_04	53	19	you	-PRON-	PRP
homer-odyssey-850_04	53	20	could	could	MD
homer-odyssey-850_04	53	21	give	give	VB
homer-odyssey-850_04	53	22	him	-PRON-	PRP
homer-odyssey-850_04	53	23	any	any	DT
homer-odyssey-850_04	53	24	counsel	counsel	NN
homer-odyssey-850_04	53	25	or	or	CC
homer-odyssey-850_04	53	26	suggestion	suggestion	NN
homer-odyssey-850_04	53	27	.	.	.
homer-odyssey-850_04	54	1	A	a	DT
homer-odyssey-850_04	54	2	son	son	NN
homer-odyssey-850_04	54	3	has	have	VBZ
homer-odyssey-850_04	54	4	always	always	RB
homer-odyssey-850_04	54	5	trouble	trouble	NN
homer-odyssey-850_04	54	6	at	at	IN
homer-odyssey-850_04	54	7	home	home	NN
homer-odyssey-850_04	54	8	when	when	WRB
homer-odyssey-850_04	54	9	his	-PRON-	PRP$
homer-odyssey-850_04	54	10	father	father	NN
homer-odyssey-850_04	54	11	has	have	VBZ
homer-odyssey-850_04	54	12	gone	go	VBN
homer-odyssey-850_04	54	13	away	away	RB
homer-odyssey-850_04	54	14	leaving	leave	VBG
homer-odyssey-850_04	54	15	him	-PRON-	PRP
homer-odyssey-850_04	54	16	without	without	IN
homer-odyssey-850_04	54	17	supporters	supporter	NNS
homer-odyssey-850_04	54	18	;	;	:
homer-odyssey-850_04	54	19	and	and	CC
homer-odyssey-850_04	54	20	this	this	DT
homer-odyssey-850_04	54	21	is	be	VBZ
homer-odyssey-850_04	54	22	how	how	WRB
homer-odyssey-850_04	54	23	Telemachus	telemachus	NNP
homer-odyssey-850_04	54	24	is	be	VBZ
homer-odyssey-850_04	54	25	now	now	RB
homer-odyssey-850_04	54	26	placed	place	VBN
homer-odyssey-850_04	54	27	,	,	,
homer-odyssey-850_04	54	28	for	for	IN
homer-odyssey-850_04	54	29	his	-PRON-	PRP$
homer-odyssey-850_04	54	30	father	father	NN
homer-odyssey-850_04	54	31	is	be	VBZ
homer-odyssey-850_04	54	32	absent	absent	JJ
homer-odyssey-850_04	54	33	,	,	,
homer-odyssey-850_04	54	34	and	and	CC
homer-odyssey-850_04	54	35	there	there	EX
homer-odyssey-850_04	54	36	is	be	VBZ
homer-odyssey-850_04	54	37	no	no	DT
homer-odyssey-850_04	54	38	one	one	NN
homer-odyssey-850_04	54	39	among	among	IN
homer-odyssey-850_04	54	40	his	-PRON-	PRP$
homer-odyssey-850_04	54	41	own	own	JJ
homer-odyssey-850_04	54	42	people	people	NNS
homer-odyssey-850_04	54	43	to	to	TO
homer-odyssey-850_04	54	44	stand	stand	VB
homer-odyssey-850_04	54	45	by	by	IN
homer-odyssey-850_04	54	46	him	-PRON-	PRP
homer-odyssey-850_04	54	47	.	.	.
homer-odyssey-850_04	54	48	"	"	''
homer-odyssey-850_04	55	1	"	"	``
homer-odyssey-850_04	55	2	Bless	bless	VB
homer-odyssey-850_04	55	3	my	-PRON-	PRP$
homer-odyssey-850_04	55	4	heart	heart	NN
homer-odyssey-850_04	55	5	,	,	,
homer-odyssey-850_04	55	6	"	"	''
homer-odyssey-850_04	55	7	replied	reply	VBD
homer-odyssey-850_04	55	8	Menelaus	menelaus	NNP
homer-odyssey-850_04	55	9	,	,	,
homer-odyssey-850_04	55	10	"	"	''
homer-odyssey-850_04	55	11	then	then	RB
homer-odyssey-850_04	55	12	I	-PRON-	PRP
homer-odyssey-850_04	55	13	am	be	VBP
homer-odyssey-850_04	55	14	receiving	receive	VBG
homer-odyssey-850_04	55	15	a	a	DT
homer-odyssey-850_04	55	16	visit	visit	NN
homer-odyssey-850_04	55	17	from	from	IN
homer-odyssey-850_04	55	18	the	the	DT
homer-odyssey-850_04	55	19	son	son	NN
homer-odyssey-850_04	55	20	of	of	IN
homer-odyssey-850_04	55	21	a	a	DT
homer-odyssey-850_04	55	22	very	very	RB
homer-odyssey-850_04	55	23	dear	dear	JJ
homer-odyssey-850_04	55	24	friend	friend	NN
homer-odyssey-850_04	55	25	,	,	,
homer-odyssey-850_04	55	26	who	who	WP
homer-odyssey-850_04	55	27	suffered	suffer	VBD
homer-odyssey-850_04	55	28	much	much	JJ
homer-odyssey-850_04	55	29	hardship	hardship	NN
homer-odyssey-850_04	55	30	for	for	IN
homer-odyssey-850_04	55	31	my	-PRON-	PRP$
homer-odyssey-850_04	55	32	sake	sake	NN
homer-odyssey-850_04	55	33	.	.	.
homer-odyssey-850_04	56	1	I	-PRON-	PRP
homer-odyssey-850_04	56	2	had	have	VBD
homer-odyssey-850_04	56	3	always	always	RB
homer-odyssey-850_04	56	4	hoped	hop	VBN
homer-odyssey-850_04	56	5	to	to	TO
homer-odyssey-850_04	56	6	entertain	entertain	VB
homer-odyssey-850_04	56	7	him	-PRON-	PRP
homer-odyssey-850_04	56	8	with	with	IN
homer-odyssey-850_04	56	9	most	most	RBS
homer-odyssey-850_04	56	10	marked	marked	JJ
homer-odyssey-850_04	56	11	distinction	distinction	NN
homer-odyssey-850_04	56	12	when	when	WRB
homer-odyssey-850_04	56	13	heaven	heaven	NNP
homer-odyssey-850_04	56	14	had	have	VBD
homer-odyssey-850_04	56	15	granted	grant	VBN
homer-odyssey-850_04	56	16	us	-PRON-	PRP
homer-odyssey-850_04	56	17	a	a	DT
homer-odyssey-850_04	56	18	safe	safe	JJ
homer-odyssey-850_04	56	19	return	return	NN
homer-odyssey-850_04	56	20	from	from	IN
homer-odyssey-850_04	56	21	beyond	beyond	IN
homer-odyssey-850_04	56	22	the	the	DT
homer-odyssey-850_04	56	23	seas	sea	NNS
homer-odyssey-850_04	56	24	.	.	.
homer-odyssey-850_04	57	1	I	-PRON-	PRP
homer-odyssey-850_04	57	2	should	should	MD
homer-odyssey-850_04	57	3	have	have	VB
homer-odyssey-850_04	57	4	founded	found	VBN
homer-odyssey-850_04	57	5	a	a	DT
homer-odyssey-850_04	57	6	city	city	NN
homer-odyssey-850_04	57	7	for	for	IN
homer-odyssey-850_04	57	8	him	-PRON-	PRP
homer-odyssey-850_04	57	9	in	in	IN
homer-odyssey-850_04	57	10	Argos	argos	NNP
homer-odyssey-850_04	57	11	,	,	,
homer-odyssey-850_04	57	12	and	and	CC
homer-odyssey-850_04	57	13	built	build	VBD
homer-odyssey-850_04	57	14	him	-PRON-	PRP
homer-odyssey-850_04	57	15	a	a	DT
homer-odyssey-850_04	57	16	house	house	NN
homer-odyssey-850_04	57	17	.	.	.
homer-odyssey-850_04	58	1	I	-PRON-	PRP
homer-odyssey-850_04	58	2	should	should	MD
homer-odyssey-850_04	58	3	have	have	VB
homer-odyssey-850_04	58	4	made	make	VBN
homer-odyssey-850_04	58	5	him	-PRON-	PRP
homer-odyssey-850_04	58	6	leave	leave	VB
homer-odyssey-850_04	58	7	Ithaca	ithaca	NNP
homer-odyssey-850_04	58	8	with	with	IN
homer-odyssey-850_04	58	9	his	-PRON-	PRP$
homer-odyssey-850_04	58	10	goods	good	NNS
homer-odyssey-850_04	58	11	,	,	,
homer-odyssey-850_04	58	12	his	-PRON-	PRP$
homer-odyssey-850_04	58	13	son	son	NN
homer-odyssey-850_04	58	14	,	,	,
homer-odyssey-850_04	58	15	and	and	CC
homer-odyssey-850_04	58	16	all	all	PDT
homer-odyssey-850_04	58	17	his	-PRON-	PRP$
homer-odyssey-850_04	58	18	people	people	NNS
homer-odyssey-850_04	58	19	,	,	,
homer-odyssey-850_04	58	20	and	and	CC
homer-odyssey-850_04	58	21	should	should	MD
homer-odyssey-850_04	58	22	have	have	VB
homer-odyssey-850_04	58	23	sacked	sack	VBN
homer-odyssey-850_04	58	24	for	for	IN
homer-odyssey-850_04	58	25	them	-PRON-	PRP
homer-odyssey-850_04	58	26	some	some	DT
homer-odyssey-850_04	58	27	one	one	CD
homer-odyssey-850_04	58	28	of	of	IN
homer-odyssey-850_04	58	29	the	the	DT
homer-odyssey-850_04	58	30	neighbouring	neighbour	VBG
homer-odyssey-850_04	58	31	cities	city	NNS
homer-odyssey-850_04	58	32	that	that	WDT
homer-odyssey-850_04	58	33	are	be	VBP
homer-odyssey-850_04	58	34	subject	subject	JJ
homer-odyssey-850_04	58	35	to	to	IN
homer-odyssey-850_04	58	36	me	-PRON-	PRP
homer-odyssey-850_04	58	37	.	.	.
homer-odyssey-850_04	59	1	We	-PRON-	PRP
homer-odyssey-850_04	59	2	should	should	MD
homer-odyssey-850_04	59	3	thus	thus	RB
homer-odyssey-850_04	59	4	have	have	VB
homer-odyssey-850_04	59	5	seen	see	VBN
homer-odyssey-850_04	59	6	one	one	CD
homer-odyssey-850_04	59	7	another	another	DT
homer-odyssey-850_04	59	8	continually	continually	RB
homer-odyssey-850_04	59	9	,	,	,
homer-odyssey-850_04	59	10	and	and	CC
homer-odyssey-850_04	59	11	nothing	nothing	NN
homer-odyssey-850_04	59	12	but	but	IN
homer-odyssey-850_04	59	13	death	death	NN
homer-odyssey-850_04	59	14	could	could	MD
homer-odyssey-850_04	59	15	have	have	VB
homer-odyssey-850_04	59	16	interrupted	interrupt	VBN
homer-odyssey-850_04	59	17	so	so	RB
homer-odyssey-850_04	59	18	close	close	RB
homer-odyssey-850_04	59	19	and	and	CC
homer-odyssey-850_04	59	20	happy	happy	JJ
homer-odyssey-850_04	59	21	an	an	DT
homer-odyssey-850_04	59	22	intercourse	intercourse	NN
homer-odyssey-850_04	59	23	.	.	.
homer-odyssey-850_04	60	1	I	-PRON-	PRP
homer-odyssey-850_04	60	2	suppose	suppose	VBP
homer-odyssey-850_04	60	3	,	,	,
homer-odyssey-850_04	60	4	however	however	RB
homer-odyssey-850_04	60	5	,	,	,
homer-odyssey-850_04	60	6	that	that	IN
homer-odyssey-850_04	60	7	heaven	heaven	NNP
homer-odyssey-850_04	60	8	grudged	grudge	VBD
homer-odyssey-850_04	60	9	us	-PRON-	PRP
homer-odyssey-850_04	60	10	such	such	JJ
homer-odyssey-850_04	60	11	great	great	JJ
homer-odyssey-850_04	60	12	good	good	JJ
homer-odyssey-850_04	60	13	fortune	fortune	NN
homer-odyssey-850_04	60	14	,	,	,
homer-odyssey-850_04	60	15	for	for	IN
homer-odyssey-850_04	60	16	it	-PRON-	PRP
homer-odyssey-850_04	60	17	has	have	VBZ
homer-odyssey-850_04	60	18	prevented	prevent	VBN
homer-odyssey-850_04	60	19	the	the	DT
homer-odyssey-850_04	60	20	poor	poor	JJ
homer-odyssey-850_04	60	21	fellow	fellow	NN
homer-odyssey-850_04	60	22	from	from	IN
homer-odyssey-850_04	60	23	ever	ever	RB
homer-odyssey-850_04	60	24	getting	get	VBG
homer-odyssey-850_04	60	25	home	home	NN
homer-odyssey-850_04	60	26	at	at	RB
homer-odyssey-850_04	60	27	all	all	RB
homer-odyssey-850_04	60	28	.	.	.
homer-odyssey-850_04	60	29	"	"	''
homer-odyssey-850_04	61	1	Thus	thus	RB
homer-odyssey-850_04	61	2	did	do	VBD
homer-odyssey-850_04	61	3	he	-PRON-	PRP
homer-odyssey-850_04	61	4	speak	speak	VB
homer-odyssey-850_04	61	5	,	,	,
homer-odyssey-850_04	61	6	and	and	CC
homer-odyssey-850_04	61	7	his	-PRON-	PRP$
homer-odyssey-850_04	61	8	words	word	NNS
homer-odyssey-850_04	61	9	set	set	VBD
homer-odyssey-850_04	61	10	them	-PRON-	PRP
homer-odyssey-850_04	61	11	all	all	PDT
homer-odyssey-850_04	61	12	a	a	DT
homer-odyssey-850_04	61	13	weeping	weeping	NN
homer-odyssey-850_04	61	14	.	.	.
homer-odyssey-850_04	62	1	Helen	helen	NNP
homer-odyssey-850_04	62	2	wept	weep	VBD
homer-odyssey-850_04	62	3	,	,	,
homer-odyssey-850_04	62	4	Telemachus	telemachus	NNP
homer-odyssey-850_04	62	5	wept	weep	VBD
homer-odyssey-850_04	62	6	,	,	,
homer-odyssey-850_04	62	7	and	and	CC
homer-odyssey-850_04	62	8	so	so	RB
homer-odyssey-850_04	62	9	did	do	VBD
homer-odyssey-850_04	62	10	Menelaus	menelaus	NNP
[...]
homer-odyssey-850_04	260	34	went	go	VBD
homer-odyssey-850_04	260	35	for	for	IN
homer-odyssey-850_04	260	36	pulling	pull	VBG
homer-odyssey-850_04	260	37	the	the	DT
homer-odyssey-850_04	260	38	door	door	NN
homer-odyssey-850_04	260	39	to	to	TO
homer-odyssey-850_04	260	40	,	,	,
homer-odyssey-850_04	260	41	and	and	CC
homer-odyssey-850_04	260	42	hovered	hover	VBD
homer-odyssey-850_04	260	43	over	over	IN
homer-odyssey-850_04	260	44	her	-PRON-	PRP$
homer-odyssey-850_04	260	45	head	head	NN
homer-odyssey-850_04	260	46	saying	say	VBG
homer-odyssey-850_04	260	47	,	,	,
homer-odyssey-850_04	260	48	"	"	``
homer-odyssey-850_04	260	49	You	-PRON-	PRP
homer-odyssey-850_04	260	50	are	be	VBP
homer-odyssey-850_04	260	51	asleep	asleep	JJ
homer-odyssey-850_04	260	52	,	,	,
homer-odyssey-850_04	260	53	Penelope	penelope	NNP
homer-odyssey-850_04	260	54	:	:	:
homer-odyssey-850_04	260	55	the	the	DT
homer-odyssey-850_04	260	56	gods	god	NNS
homer-odyssey-850_04	260	57	who	who	WP
homer-odyssey-850_04	260	58	live	live	VBP
homer-odyssey-850_04	260	59	at	at	IN
homer-odyssey-850_04	260	60	ease	ease	NN
homer-odyssey-850_04	260	61	will	will	MD
homer-odyssey-850_04	260	62	not	not	RB
homer-odyssey-850_04	260	63	suffer	suffer	VB
homer-odyssey-850_04	260	64	you	-PRON-	PRP
homer-odyssey-850_04	260	65	to	to	TO
homer-odyssey-850_04	260	66	weep	weep	VB
homer-odyssey-850_04	260	67	and	and	CC
homer-odyssey-850_04	260	68	be	be	VB
homer-odyssey-850_04	260	69	so	so	RB
homer-odyssey-850_04	260	70	sad	sad	JJ
homer-odyssey-850_04	260	71	.	.	.
homer-odyssey-850_04	261	1	Your	-PRON-	PRP$
homer-odyssey-850_04	261	2	son	son	NN
homer-odyssey-850_04	261	3	has	have	VBZ
homer-odyssey-850_04	261	4	done	do	VBN
homer-odyssey-850_04	261	5	them	-PRON-	PRP
homer-odyssey-850_04	261	6	no	no	DT
homer-odyssey-850_04	261	7	wrong	wrong	NN
homer-odyssey-850_04	261	8	,	,	,
homer-odyssey-850_04	261	9	so	so	RB
homer-odyssey-850_04	261	10	he	-PRON-	PRP
homer-odyssey-850_04	261	11	will	will	MD
homer-odyssey-850_04	261	12	yet	yet	RB
homer-odyssey-850_04	261	13	come	come	VB
homer-odyssey-850_04	261	14	back	back	RB
homer-odyssey-850_04	261	15	to	to	IN
homer-odyssey-850_04	261	16	you	-PRON-	PRP
homer-odyssey-850_04	261	17	.	.	.
homer-odyssey-850_04	261	18	"	"	''
homer-odyssey-850_04	262	1	Penelope	penelope	NNP
homer-odyssey-850_04	262	2	,	,	,
homer-odyssey-850_04	262	3	who	who	WP
homer-odyssey-850_04	262	4	was	be	VBD
homer-odyssey-850_04	262	5	sleeping	sleep	VBG
homer-odyssey-850_04	262	6	sweetly	sweetly	RB
homer-odyssey-850_04	262	7	at	at	IN
homer-odyssey-850_04	262	8	the	the	DT
homer-odyssey-850_04	262	9	gates	gate	NNS
homer-odyssey-850_04	262	10	of	of	IN
homer-odyssey-850_04	262	11	dreamland	dreamland	NN
homer-odyssey-850_04	262	12	,	,	,
homer-odyssey-850_04	262	13	answered	answer	VBD
homer-odyssey-850_04	262	14	,	,	,
homer-odyssey-850_04	262	15	"	"	``
homer-odyssey-850_04	262	16	Sister	sister	NN
homer-odyssey-850_04	262	17	,	,	,
homer-odyssey-850_04	262	18	why	why	WRB
homer-odyssey-850_04	262	19	have	have	VBP
homer-odyssey-850_04	262	20	you	-PRON-	PRP
homer-odyssey-850_04	262	21	come	come	VB
homer-odyssey-850_04	262	22	here	here	RB
homer-odyssey-850_04	262	23	?	?	.
homer-odyssey-850_04	263	1	You	-PRON-	PRP
homer-odyssey-850_04	263	2	do	do	VBP
homer-odyssey-850_04	263	3	not	not	RB
homer-odyssey-850_04	263	4	come	come	VB
homer-odyssey-850_04	263	5	very	very	RB
homer-odyssey-850_04	263	6	often	often	RB
homer-odyssey-850_04	263	7	,	,	,
homer-odyssey-850_04	263	8	but	but	CC
homer-odyssey-850_04	263	9	I	-PRON-	PRP
homer-odyssey-850_04	263	10	suppose	suppose	VBP
homer-odyssey-850_04	263	11	that	that	DT
homer-odyssey-850_04	263	12	is	be	VBZ
homer-odyssey-850_04	263	13	because	because	IN
homer-odyssey-850_04	263	14	you	-PRON-	PRP
homer-odyssey-850_04	263	15	live	live	VBP
homer-odyssey-850_04	263	16	such	such	PDT
homer-odyssey-850_04	263	17	a	a	DT
homer-odyssey-850_04	263	18	long	long	JJ
homer-odyssey-850_04	263	19	way	way	NN
homer-odyssey-850_04	263	20	off	off	RB
homer-odyssey-850_04	263	21	.	.	.
homer-odyssey-850_04	264	1	Am	be	VBP
homer-odyssey-850_04	264	2	I	-PRON-	PRP
homer-odyssey-850_04	264	3	,	,	,
homer-odyssey-850_04	264	4	then	then	RB
homer-odyssey-850_04	264	5	,	,	,
homer-odyssey-850_04	264	6	to	to	TO
homer-odyssey-850_04	264	7	leave	leave	VB
homer-odyssey-850_04	264	8	off	off	RP
homer-odyssey-850_04	264	9	crying	cry	VBG
homer-odyssey-850_04	264	10	and	and	CC
homer-odyssey-850_04	264	11	refrain	refrain	VB
homer-odyssey-850_04	264	12	from	from	IN
homer-odyssey-850_04	264	13	all	all	PDT
homer-odyssey-850_04	264	14	the	the	DT
homer-odyssey-850_04	264	15	sad	sad	JJ
homer-odyssey-850_04	264	16	thoughts	thought	NNS
homer-odyssey-850_04	264	17	that	that	WDT
homer-odyssey-850_04	264	18	torture	torture	VBP
homer-odyssey-850_04	264	19	me	-PRON-	PRP
homer-odyssey-850_04	264	20	?	?	.
homer-odyssey-850_04	265	1	I	-PRON-	PRP
homer-odyssey-850_04	265	2	,	,	,
homer-odyssey-850_04	265	3	who	who	WP
homer-odyssey-850_04	265	4	have	have	VBP
homer-odyssey-850_04	265	5	lost	lose	VBN
homer-odyssey-850_04	265	6	my	-PRON-	PRP$
homer-odyssey-850_04	265	7	brave	brave	NN
homer-odyssey-850_04	265	8	and	and	CC
homer-odyssey-850_04	265	9	lion-	lion-	IN
homer-odyssey-850_04	265	10	hearted	hearted	JJ
homer-odyssey-850_04	265	11	husband	husband	NN
homer-odyssey-850_04	265	12	,	,	,
homer-odyssey-850_04	265	13	who	who	WP
homer-odyssey-850_04	265	14	had	have	VBD
homer-odyssey-850_04	265	15	every	every	DT
homer-odyssey-850_04	265	16	good	good	JJ
homer-odyssey-850_04	265	17	quality	quality	NN
homer-odyssey-850_04	265	18	under	under	IN
homer-odyssey-850_04	265	19	heaven	heaven	NNP
homer-odyssey-850_04	265	20	,	,	,
homer-odyssey-850_04	265	21	and	and	CC
homer-odyssey-850_04	265	22	whose	whose	WP$
homer-odyssey-850_04	265	23	name	name	NN
homer-odyssey-850_04	265	24	was	be	VBD
homer-odyssey-850_04	265	25	great	great	JJ
homer-odyssey-850_04	265	26	over	over	IN
homer-odyssey-850_04	265	27	all	all	DT
homer-odyssey-850_04	265	28	Hellas	hella	NNS
homer-odyssey-850_04	265	29	and	and	CC
homer-odyssey-850_04	265	30	middle	middle	JJ
homer-odyssey-850_04	265	31	Argos	argos	NNP
homer-odyssey-850_04	265	32	;	;	:
homer-odyssey-850_04	265	33	and	and	CC
homer-odyssey-850_04	265	34	now	now	RB
homer-odyssey-850_04	265	35	my	-PRON-	PRP$
homer-odyssey-850_04	265	36	darling	darling	NN
homer-odyssey-850_04	265	37	son	son	NN
homer-odyssey-850_04	265	38	has	have	VBZ
homer-odyssey-850_04	265	39	gone	go	VBN
homer-odyssey-850_04	265	40	off	off	RP
homer-odyssey-850_04	265	41	on	on	IN
homer-odyssey-850_04	265	42	board	board	NN
homer-odyssey-850_04	265	43	of	of	IN
homer-odyssey-850_04	265	44	a	a	DT
homer-odyssey-850_04	265	45	ship--	ship--	NNP
homer-odyssey-850_04	265	46	a	a	DT
homer-odyssey-850_04	265	47	foolish	foolish	JJ
homer-odyssey-850_04	265	48	fellow	fellow	NN
homer-odyssey-850_04	265	49	who	who	WP
homer-odyssey-850_04	265	50	has	have	VBZ
homer-odyssey-850_04	265	51	never	never	RB
homer-odyssey-850_04	265	52	been	be	VBN
homer-odyssey-850_04	265	53	used	use	VBN
homer-odyssey-850_04	265	54	to	to	IN
homer-odyssey-850_04	265	55	roughing	rough	VBG
homer-odyssey-850_04	265	56	it	-PRON-	PRP
homer-odyssey-850_04	265	57	,	,	,
homer-odyssey-850_04	265	58	nor	nor	CC
homer-odyssey-850_04	265	59	to	to	IN
homer-odyssey-850_04	265	60	going	go	VBG
homer-odyssey-850_04	265	61	about	about	RP
homer-odyssey-850_04	265	62	among	among	IN
homer-odyssey-850_04	265	63	gatherings	gathering	NNS
homer-odyssey-850_04	265	64	of	of	IN
homer-odyssey-850_04	265	65	men	man	NNS
homer-odyssey-850_04	265	66	.	.	.
homer-odyssey-850_04	266	1	I	-PRON-	PRP
homer-odyssey-850_04	266	2	am	be	VBP
homer-odyssey-850_04	266	3	even	even	RB
homer-odyssey-850_04	266	4	more	more	RBR
homer-odyssey-850_04	266	5	anxious	anxious	JJ
homer-odyssey-850_04	266	6	about	about	IN
homer-odyssey-850_04	266	7	him	-PRON-	PRP
homer-odyssey-850_04	266	8	than	than	IN
homer-odyssey-850_04	266	9	about	about	IN
homer-odyssey-850_04	266	10	my	-PRON-	PRP$
homer-odyssey-850_04	266	11	husband	husband	NN
homer-odyssey-850_04	266	12	;	;	:
homer-odyssey-850_04	266	13	I	-PRON-	PRP
homer-odyssey-850_04	266	14	am	be	VBP
homer-odyssey-850_04	266	15	all	all	RB
homer-odyssey-850_04	266	16	in	in	IN
homer-odyssey-850_04	266	17	a	a	DT
homer-odyssey-850_04	266	18	tremble	tremble	NN
homer-odyssey-850_04	266	19	when	when	WRB
homer-odyssey-850_04	266	20	I	-PRON-	PRP
homer-odyssey-850_04	266	21	think	think	VBP
homer-odyssey-850_04	266	22	of	of	IN
homer-odyssey-850_04	266	23	him	-PRON-	PRP
homer-odyssey-850_04	266	24	,	,	,
homer-odyssey-850_04	266	25	lest	lest	IN
homer-odyssey-850_04	266	26	something	something	NN
homer-odyssey-850_04	266	27	should	should	MD
homer-odyssey-850_04	266	28	happen	happen	VB
homer-odyssey-850_04	266	29	to	to	IN
homer-odyssey-850_04	266	30	him	-PRON-	PRP
homer-odyssey-850_04	266	31	,	,	,
homer-odyssey-850_04	266	32	either	either	CC
homer-odyssey-850_04	266	33	from	from	IN
homer-odyssey-850_04	266	34	the	the	DT
homer-odyssey-850_04	266	35	people	people	NNS
homer-odyssey-850_04	266	36	among	among	IN
homer-odyssey-850_04	266	37	whom	whom	WP
homer-odyssey-850_04	266	38	he	-PRON-	PRP
homer-odyssey-850_04	266	39	has	have	VBZ
homer-odyssey-850_04	266	40	gone	go	VBN
homer-odyssey-850_04	266	41	,	,	,
homer-odyssey-850_04	266	42	or	or	CC
homer-odyssey-850_04	266	43	by	by	IN
homer-odyssey-850_04	266	44	sea	sea	NN
homer-odyssey-850_04	266	45	,	,	,
homer-odyssey-850_04	266	46	for	for	IN
homer-odyssey-850_04	266	47	he	-PRON-	PRP
homer-odyssey-850_04	266	48	has	have	VBZ
homer-odyssey-850_04	266	49	many	many	JJ
homer-odyssey-850_04	266	50	enemies	enemy	NNS
homer-odyssey-850_04	266	51	who	who	WP
homer-odyssey-850_04	266	52	are	be	VBP
homer-odyssey-850_04	266	53	plotting	plot	VBG
homer-odyssey-850_04	266	54	against	against	IN
homer-odyssey-850_04	266	55	him	-PRON-	PRP
homer-odyssey-850_04	266	56	,	,	,
homer-odyssey-850_04	266	57	and	and	CC
homer-odyssey-850_04	266	58	are	be	VBP
homer-odyssey-850_04	266	59	bent	bent	JJ
homer-odyssey-850_04	266	60	on	on	IN
homer-odyssey-850_04	266	61	killing	kill	VBG
homer-odyssey-850_04	266	62	him	-PRON-	PRP
homer-odyssey-850_04	266	63	before	before	IN
homer-odyssey-850_04	266	64	he	-PRON-	PRP
homer-odyssey-850_04	266	65	can	can	MD
homer-odyssey-850_04	266	66	return	return	VB
homer-odyssey-850_04	266	67	home	home	RB
homer-odyssey-850_04	266	68	.	.	.
homer-odyssey-850_04	266	69	"	"	''
homer-odyssey-850_04	267	1	Then	then	RB
homer-odyssey-850_04	267	2	the	the	DT
homer-odyssey-850_04	267	3	vision	vision	NN
homer-odyssey-850_04	267	4	said	say	VBD
homer-odyssey-850_04	267	5	,	,	,
homer-odyssey-850_04	267	6	"	"	``
homer-odyssey-850_04	267	7	Take	take	VB
homer-odyssey-850_04	267	8	heart	heart	NN
homer-odyssey-850_04	267	9	,	,	,
homer-odyssey-850_04	267	10	and	and	CC
homer-odyssey-850_04	267	11	be	be	VB
homer-odyssey-850_04	267	12	not	not	RB
homer-odyssey-850_04	267	13	so	so	RB
homer-odyssey-850_04	267	14	much	much	RB
homer-odyssey-850_04	267	15	dismayed	dismayed	JJ
homer-odyssey-850_04	267	16	.	.	.
homer-odyssey-850_04	268	1	There	there	EX
homer-odyssey-850_04	268	2	is	be	VBZ
homer-odyssey-850_04	268	3	one	one	CD
homer-odyssey-850_04	268	4	gone	go	VBN
homer-odyssey-850_04	268	5	with	with	IN
homer-odyssey-850_04	268	6	him	-PRON-	PRP
homer-odyssey-850_04	268	7	whom	whom	WP
homer-odyssey-850_04	268	8	many	many	JJ
homer-odyssey-850_04	268	9	a	a	DT
homer-odyssey-850_04	268	10	man	man	NN
homer-odyssey-850_04	268	11	would	would	MD
homer-odyssey-850_04	268	12	be	be	VB
homer-odyssey-850_04	268	13	glad	glad	JJ
homer-odyssey-850_04	268	14	enough	enough	RB
homer-odyssey-850_04	268	15	to	to	TO
homer-odyssey-850_04	268	16	have	have	VB
homer-odyssey-850_04	268	17	stand	stand	NN
homer-odyssey-850_04	268	18	by	by	IN
homer-odyssey-850_04	268	19	his	-PRON-	PRP$
homer-odyssey-850_04	268	20	side	side	NN
homer-odyssey-850_04	268	21	,	,	,
homer-odyssey-850_04	268	22	I	-PRON-	PRP
homer-odyssey-850_04	268	23	mean	mean	VBP
homer-odyssey-850_04	268	24	Minerva	minerva	NNP
homer-odyssey-850_04	268	25	;	;	:
homer-odyssey-850_04	268	26	it	-PRON-	PRP
homer-odyssey-850_04	268	27	is	be	VBZ
homer-odyssey-850_04	268	28	she	-PRON-	PRP
homer-odyssey-850_04	268	29	who	who	WP
homer-odyssey-850_04	268	30	has	have	VBZ
homer-odyssey-850_04	268	31	compassion	compassion	NN
homer-odyssey-850_04	268	32	upon	upon	IN
homer-odyssey-850_04	268	33	you	-PRON-	PRP
homer-odyssey-850_04	268	34	,	,	,
homer-odyssey-850_04	268	35	and	and	CC
homer-odyssey-850_04	268	36	who	who	WP
homer-odyssey-850_04	268	37	has	have	VBZ
homer-odyssey-850_04	268	38	sent	send	VBN
homer-odyssey-850_04	268	39	me	-PRON-	PRP
homer-odyssey-850_04	268	40	to	to	TO
homer-odyssey-850_04	268	41	bear	bear	VB
homer-odyssey-850_04	268	42	you	-PRON-	PRP
homer-odyssey-850_04	268	43	this	this	DT
homer-odyssey-850_04	268	44	message	message	NN
homer-odyssey-850_04	268	45	.	.	.
homer-odyssey-850_04	268	46	"	"	''
homer-odyssey-850_04	269	1	"	"	``
homer-odyssey-850_04	269	2	Then	then	RB
homer-odyssey-850_04	269	3	,	,	,
homer-odyssey-850_04	269	4	"	"	''
homer-odyssey-850_04	269	5	said	say	VBD
homer-odyssey-850_04	269	6	Penelope	penelope	NNP
homer-odyssey-850_04	269	7	,	,	,
homer-odyssey-850_04	269	8	"	"	``
homer-odyssey-850_04	269	9	if	if	IN
homer-odyssey-850_04	269	10	you	-PRON-	PRP
homer-odyssey-850_04	269	11	are	be	VBP
homer-odyssey-850_04	269	12	a	a	DT
homer-odyssey-850_04	269	13	god	god	NN
homer-odyssey-850_04	269	14	or	or	CC
homer-odyssey-850_04	269	15	have	have	VBP
homer-odyssey-850_04	269	16	been	be	VBN
homer-odyssey-850_04	269	17	sent	send	VBN
homer-odyssey-850_04	269	18	here	here	RB
homer-odyssey-850_04	269	19	by	by	IN
homer-odyssey-850_04	269	20	divine	divine	JJ
homer-odyssey-850_04	269	21	commission	commission	NN
homer-odyssey-850_04	269	22	,	,	,
homer-odyssey-850_04	269	23	tell	tell	VB
homer-odyssey-850_04	269	24	me	-PRON-	PRP
homer-odyssey-850_04	269	25	also	also	RB
homer-odyssey-850_04	269	26	about	about	IN
homer-odyssey-850_04	269	27	that	that	DT
homer-odyssey-850_04	269	28	other	other	JJ
homer-odyssey-850_04	269	29	unhappy	unhappy	JJ
homer-odyssey-850_04	269	30	one--	one--	NN
homer-odyssey-850_04	269	31	is	be	VBZ
homer-odyssey-850_04	269	32	he	-PRON-	PRP
homer-odyssey-850_04	269	33	still	still	RB
homer-odyssey-850_04	269	34	alive	alive	JJ
homer-odyssey-850_04	269	35	,	,	,
homer-odyssey-850_04	269	36	or	or	CC
homer-odyssey-850_04	269	37	is	be	VBZ
homer-odyssey-850_04	269	38	he	-PRON-	PRP
homer-odyssey-850_04	269	39	already	already	RB
homer-odyssey-850_04	269	40	dead	dead	JJ
homer-odyssey-850_04	269	41	and	and	CC
homer-odyssey-850_04	269	42	in	in	IN
homer-odyssey-850_04	269	43	the	the	DT
homer-odyssey-850_04	269	44	house	house	NN
homer-odyssey-850_04	269	45	of	of	IN
homer-odyssey-850_04	269	46	Hades	hades	NNP
homer-odyssey-850_04	269	47	?	?	.
homer-odyssey-850_04	269	48	"	"	''
homer-odyssey-850_04	270	1	And	and	CC
homer-odyssey-850_04	270	2	the	the	DT
homer-odyssey-850_04	270	3	vision	vision	NN
homer-odyssey-850_04	270	4	said	say	VBD
homer-odyssey-850_04	270	5	,	,	,
homer-odyssey-850_04	270	6	"	"	``
homer-odyssey-850_04	270	7	I	-PRON-	PRP
homer-odyssey-850_04	270	8	shall	shall	MD
homer-odyssey-850_04	270	9	not	not	RB
homer-odyssey-850_04	270	10	tell	tell	VB
homer-odyssey-850_04	270	11	you	-PRON-	PRP
homer-odyssey-850_04	270	12	for	for	IN
homer-odyssey-850_04	270	13	certain	certain	JJ
homer-odyssey-850_04	270	14	whether	whether	IN
homer-odyssey-850_04	270	15	he	-PRON-	PRP
homer-odyssey-850_04	270	16	is	be	VBZ
homer-odyssey-850_04	270	17	alive	alive	JJ
homer-odyssey-850_04	270	18	or	or	CC
homer-odyssey-850_04	270	19	dead	dead	JJ
homer-odyssey-850_04	270	20	,	,	,
homer-odyssey-850_04	270	21	and	and	CC
homer-odyssey-850_04	270	22	there	there	EX
homer-odyssey-850_04	270	23	is	be	VBZ
homer-odyssey-850_04	270	24	no	no	DT
homer-odyssey-850_04	270	25	use	use	NN
homer-odyssey-850_04	270	26	in	in	IN
homer-odyssey-850_04	270	27	idle	idle	JJ
homer-odyssey-850_04	270	28	conversation	conversation	NN
homer-odyssey-850_04	270	29	.	.	.
homer-odyssey-850_04	270	30	"	"	''
homer-odyssey-850_04	271	1	Then	then	RB
homer-odyssey-850_04	271	2	it	-PRON-	PRP
homer-odyssey-850_04	271	3	vanished	vanish	VBD
homer-odyssey-850_04	271	4	through	through	IN
homer-odyssey-850_04	271	5	the	the	DT
homer-odyssey-850_04	271	6	thong-	thong-	NN
homer-odyssey-850_04	271	7	hole	hole	NN
homer-odyssey-850_04	271	8	of	of	IN
homer-odyssey-850_04	271	9	the	the	DT
homer-odyssey-850_04	271	10	door	door	NN
homer-odyssey-850_04	271	11	and	and	CC
homer-odyssey-850_04	271	12	was	be	VBD
homer-odyssey-850_04	271	13	dissipated	dissipate	VBN
homer-odyssey-850_04	271	14	into	into	IN
homer-odyssey-850_04	271	15	thin	thin	JJ
homer-odyssey-850_04	271	16	air	air	NN
homer-odyssey-850_04	271	17	;	;	:
homer-odyssey-850_04	271	18	but	but	CC
homer-odyssey-850_04	271	19	Penelope	penelope	NNP
homer-odyssey-850_04	271	20	rose	rise	VBD
homer-odyssey-850_04	271	21	from	from	IN
homer-odyssey-850_04	271	22	her	-PRON-	PRP$
homer-odyssey-850_04	271	23	sleep	sleep	NN
homer-odyssey-850_04	271	24	refreshed	refresh	VBD
homer-odyssey-850_04	271	25	and	and	CC
homer-odyssey-850_04	271	26	comforted	comfort	VBN
homer-odyssey-850_04	271	27	,	,	,
homer-odyssey-850_04	271	28	so	so	RB
homer-odyssey-850_04	271	29	vivid	vivid	JJ
homer-odyssey-850_04	271	30	had	have	VBD
homer-odyssey-850_04	271	31	been	be	VBN
homer-odyssey-850_04	271	32	her	-PRON-	PRP$
homer-odyssey-850_04	271	33	dream	dream	NN
homer-odyssey-850_04	271	34	.	.	.
homer-odyssey-850_04	272	1	Meantime	meantime	RB
homer-odyssey-850_04	272	2	the	the	DT
homer-odyssey-850_04	272	3	suitors	suitor	NNS
homer-odyssey-850_04	272	4	went	go	VBD
homer-odyssey-850_04	272	5	on	on	IN
homer-odyssey-850_04	272	6	board	board	NN
homer-odyssey-850_04	272	7	and	and	CC
homer-odyssey-850_04	272	8	sailed	sail	VBD
homer-odyssey-850_04	272	9	their	-PRON-	PRP$
homer-odyssey-850_04	272	10	ways	way	NNS
homer-odyssey-850_04	272	11	over	over	IN
homer-odyssey-850_04	272	12	the	the	DT
homer-odyssey-850_04	272	13	sea	sea	NN
homer-odyssey-850_04	272	14	,	,	,
homer-odyssey-850_04	272	15	intent	intent	NN
homer-odyssey-850_04	272	16	on	on	IN
homer-odyssey-850_04	272	17	murdering	murder	VBG
homer-odyssey-850_04	272	18	Telemachus	telemachus	NN
homer-odyssey-850_04	272	19	.	.	.
homer-odyssey-850_04	273	1	Now	now	RB
homer-odyssey-850_04	273	2	there	there	EX
homer-odyssey-850_04	273	3	is	be	VBZ
homer-odyssey-850_04	273	4	a	a	DT
homer-odyssey-850_04	273	5	rocky	rocky	JJ
homer-odyssey-850_04	273	6	islet	islet	NN
homer-odyssey-850_04	273	7	called	call	VBN
homer-odyssey-850_04	273	8	Asteris	asteris	NNP
homer-odyssey-850_04	273	9	,	,	,
homer-odyssey-850_04	273	10	of	of	IN
homer-odyssey-850_04	273	11	no	no	DT
homer-odyssey-850_04	273	12	great	great	JJ
homer-odyssey-850_04	273	13	size	size	NN
homer-odyssey-850_04	273	14	,	,	,
homer-odyssey-850_04	273	15	in	in	IN
homer-odyssey-850_04	273	16	mid	mid	JJ
homer-odyssey-850_04	273	17	channel	channel	NN
homer-odyssey-850_04	273	18	between	between	IN
homer-odyssey-850_04	273	19	Ithaca	ithaca	NNP
homer-odyssey-850_04	273	20	and	and	CC
homer-odyssey-850_04	273	21	Samos	samos	NNP
homer-odyssey-850_04	273	22	,	,	,
homer-odyssey-850_04	273	23	and	and	CC
homer-odyssey-850_04	273	24	there	there	EX
homer-odyssey-850_04	273	25	is	be	VBZ
homer-odyssey-850_04	273	26	a	a	DT
homer-odyssey-850_04	273	27	harbour	harbour	NN
homer-odyssey-850_04	273	28	on	on	IN
homer-odyssey-850_04	273	29	either	either	DT
homer-odyssey-850_04	273	30	side	side	NN
homer-odyssey-850_04	273	31	of	of	IN
homer-odyssey-850_04	273	32	it	-PRON-	PRP
homer-odyssey-850_04	273	33	where	where	WRB
homer-odyssey-850_04	273	34	a	a	DT
homer-odyssey-850_04	273	35	ship	ship	NN
homer-odyssey-850_04	273	36	can	can	MD
homer-odyssey-850_04	273	37	lie	lie	VB
homer-odyssey-850_04	273	38	.	.	.
homer-odyssey-850_04	274	1	Here	here	RB
homer-odyssey-850_04	274	2	then	then	RB
homer-odyssey-850_04	274	3	the	the	DT
homer-odyssey-850_04	274	4	Achaeans	achaeans	NNPS
homer-odyssey-850_04	274	5	placed	place	VBD
homer-odyssey-850_04	274	6	themselves	-PRON-	PRP
homer-odyssey-850_04	274	7	in	in	IN
homer-odyssey-850_04	274	8	ambush	ambush	NN
homer-odyssey-850_04	274	9	.	.	.
